         MACRO
&NAME    @RETURN
         GBLC  &CORE,&SPL
&NAME    LA    R0,&CORE                SAVEAREA LENGTH
         AIF   ('&SPL' EQ '0').LABL01
         LA    R1,&SPL                 LOAD SUBPOOL
         SLL   R1,24                   SHIFT 24-BITS LEFT
         OR    R0,R1                   PUT SUBPOOL INTO R0
.LABL01  ANOP
         LR    R1,R13                  SAVEAREA ADDRESS
         L     R13,4(,R13)             RESTORE SIGHER SAVE AREA
         LR    R5,R15                  SAVE RETURN CODE
         FREEMAIN R,LV=(0),A=(1)       FREE STORAGE
&CORE    SETC  '0'
&SPL     SETC  '0'
         LR    R15,R5                  RESTORE RETURN CODE
         LM    R0,R12,20(R13)          RESTORE REGISTERS 0-12
         L     R14,12(,R13)            RESTORE REGISTER 14
         BR    R14                     RETURN TO CALLER
         MEND
