./ ADD NAME=$AFTLIST 0100-80001-80001-1200-00021-00021-00000-MACLIB  00
         MACRO
         $AFTLIST  &BEGLIST,&DUMMYNM
         GBLC      &FUNAME(255),&FMODE(255)
         GBLA      &NUMFUN,&HCHAIN(255),&LCHAIN(255),&HEAD
         LCLA      &N
         LCLC      &SPMODE                                         V1L4
         BINTREE
         DS        0F                  ALIGN LIST                  V1L4
&DUMMYNM DC        CL6'*-*',AL1(FUNC+REAL4)    NAME, TYPE          V1L4
         DC        AL1(&HEAD,&HEAD),AL3(&DUMMYNM) LOPTR,HIPTR,ADDR V1L4
&BEGLIST EQU       *
&N       SETA      1
.LOOP    ANOP
&SPMODE  SETC      'FUNC+'                                         V1L4
         AIF       ('&FMODE(&N)' NE 'SUBR').FUNC                   V1L4
&SPMODE  SETC      ''                                              V1L4
.FUNC    DC        CL6'&FUNAME(&N)',AL1(&SPMODE&FMODE(&N))         V1L4
         DC    AL1(&LCHAIN(&N)),AL1(&HCHAIN(&N)),AL3(*-*)          V1L4
&N       SETA      &N+1
         AIF       (&N LE &NUMFUN).LOOP
         MEND
./ ADD NAME=$ERROR   0100-80001-80001-1200-00073-00073-00000-MACLIB  00
         MACRO
&NAME    $ERROR    &ERCD,&RET,&SAVE                                V1L5
         GBLA      &ERROR#
         LCLC      &P4,&P5
         LCLA      &X
         LCLC      &Y
&ERROR#  SETA      &ERROR#+1
&P4      SETC      '&ERCD(4)'
&P5      SETC      '&ERCD(5)'
&NAME    DC        0H'0'
         AIF       (T'&SAVE EQ 'O').NOSAV
         AIF       ('&SYSLIST(3)'(1,4) EQ 'SAVE').SAVOK
         MNOTE '*** INVALID SAVE PARAMETER ***'
.SAVOK   ANOP
.*   SAVE REGISTERS IN LINE
.*  USE XERRENT1 IF ERRCODE IN-LINE (I.E. AT 0(R14))
.* USE XERRENT2 IF ERRCODE OUT OF LINE (I.E. AT 0(R1))
         STM       R0,R15,XHELPS
         AIF       (T'&ERCD EQ 'O').NOCD
         BAL       R14,XERRENT1
         ERRCODE   (&ERCD(1),&ERCD(2),&ERCD(3),&P4,&P5,&ERCD(6))
         AGO       .LDREG
.NOCD    ANOP
         BAL       R14,XERRENT2
.LDREG   LM        R0,R15,XHELPS
         AIF       ('&RET' NE 'DONE' AND '&RET' NE 'LOOP').TRYAGN
         BR        R&RET
         MEXIT
.TRYAGN  ANOP
&X       SETA      1
.LKKX1   ANOP
&Y       SETC      '&X'
         AIF       ('&RET' EQ 'R&Y').LKKX2
.AXIS14  ANOP
&X       SETA      &X+1
         AIF       (&X GT 15).CHKRET
         AIF       (&X EQ 14).AXIS14
         AGO       .LKKX1
.LKKX2   BR        &RET
         MEXIT
.NOSAV   AIF       (T'&ERCD EQ 'O').NOCD1
.*  SAVE REGISTERS AT ERROR EDITOR
.* USE XERRENT3 IF ERRCODE IS IN-LINE (I.E. AT 0(R14))
.* USE XERRENT4 IF ERRCODE IS OUT OF LINE (I.E. AT 0(R1))
         AIF       ('&RET' EQ 'DONE').DONE
&X       SETA      1
.LKKA1   ANOP
&Y       SETC      '&X'
         AIF       ('&RET' EQ 'R&Y').LKKA2
.BXIS14  ANOP
&X       SETA      &X+1
         AIF       (&X GT 15).NXT
         AIF       (&X EQ 14).BXIS14
         AGO       .LKKA1
.NXT     ANOP
         AIF       ('&RET' NE 'LOOP').REG14
         LR        R14,R11
.DONE    ANOP
         BAL       R1,XERRENT4
         ERRCODE   (&ERCD(1),&ERCD(2),&ERCD(3),&P4,&P5,&ERCD(6))
         MEXIT
.LKKA2   LR        R14,&RET
         AGO       .DONE
.REG14   ANOP
         BAL       R14,XERRENT3
         ERRCODE   (&ERCD(1),&ERCD(2),&ERCD(3),&P4,&P5,&ERCD(6))
         AGO       .CHKRET
.NOCD1   ANOP
         BAL       R14,XERRENT4
.CHKRET  AIF       (T'&RET EQ 'O').END
         B         &RET
.END     ANOP
         MEND
./ ADD NAME=$EXIT    0100-80001-80001-1200-00024-00024-00000-MACLIB  00
         MACRO
&NAME $EXIT &TY
 LCLA &AL1
* SUPVR COMMN MACROS - EXIT - 5745-SC-SUP - REL. 28.0
         AIF   (T'&TY EQ 'O').MIS
         AIF   ('&TY' EQ 'OC').OC
         AIF   ('&TY' EQ 'IT').IT
         AIF   ('&TY' EQ 'PC').PC
         AIF   ('&TY' EQ 'MR').MR
         MNOTE 5,'TYPE INVALID - MACRO IGNORED'
         MEXIT
.MR      ANOP
&AL1     SETA  &AL1+7
.OC      ANOP
&AL1     SETA  &AL1+2
.IT      ANOP
&AL1     SETA  &AL1+2
.PC      ANOP
&AL1     SETA  &AL1+17
&NAME    SVC   &AL1
         MEXIT
.MIS     ANOP
         MNOTE 5,'OPERAND OMITTED - MACRO IGNORED'
         MEND
./ ADD NAME=$FLIST1  0100-80001-80001-1200-00011-00011-00000-MACLIB  00
         MACRO
&NAME    $FLIST1   &FN,&MODE
         GBLC      &STATUS,&TEST
         LCLC      &TN
&TN      SETC      '&FN'.'     '
&TN      SETC      '&TN'(1,6)
&TEST    SETC      '&TN'
         STATUS    &FN
         AIF       ('&STATUS'(1,4) NE 'CORE').END
         ADDLIST   &FN,&MODE
.END     MEND
./ ADD NAME=$FREE    0100-80001-80001-1200-00011-00011-00000-MACLIB  00
         MACRO
         $FREE
         GBLA      &FREE#
         LCLA      &I
&FREE#   SETA      &FREE#+1
&I       SETA      1
.A       ANOP
         USING     Z&SYSLIST(&I),&SYSLIST(&I)
&I       SETA      &I+1
         AIF       (&I LE N'&SYSLIST).A
         MEND
./ ADD NAME=$PUNCH   0100-80001-80001-1200-00007-00007-00000-MACLIB  00
         MACRO                                                     DVS2
         $PUNCH    &NAME                                           DVS2
         GBLB      &NDVSD                                          DVS2
         AIF       (&NDVSD).NOPUNCH                                DVS2
         PUNCH     '   CATALR &NAME'                               DVS2
.NOPUNCH ANOP                                                      DVS2
         MEND                                                      DVS2
./ ADD NAME=$READCHK 0100-80001-80001-1200-00026-00026-00000-MACLIB  00
         MACRO                                                     V1L5
         $READCHK  &DUMMY                                          V1L5
         GBLC      &RDONLY             READ ONLY FILES             V1L5
         GBLA      &READSTR,&READEND,&PRINT,&PUNCH,&NOUTILS        V1L5
         AIF       ('&RDONLY' EQ 'OMIT').RDONE                     V1L5
         AIF       (&READEND NE 0).RD1                             V1L5
&READEND SETA      &NOUTILS                                        V1L5
.RD1     ANOP                                                      V1L5
         AIF       ((&READSTR GT 0) AND (&READEND GT 0) AND (&READSTR  *
               LE &NOUTILS) AND (&READEND LE &NOUTILS)).RD2        V1L5
         MNOTE     8,'***  THE READ ONLY FILES ARE NOT IN THE RANGE 0 TX
               O &&NOUTILS (&NOUTILS) *** '                        V1L5
.RD2     ANOP                                                      V1L5
         AIF       (&READSTR LE &READEND).RD3                      V1L5
         MNOTE     8,'*** THE VALUE OF &&READSTR (&READSTR) IS GREATER X
               THAN &&READEND (&READEND) ***'                      V1L5
.RD3     ANOP                                                      V1L5
         AIF   ((&PRINT LT &READSTR) OR (&PRINT GT &READEND)).RD4  V1L5
         MNOTE     8,'***  THE VALUE OF &&PRINT (&PRINT) IS IN THE RANGX
               E OF READ ONLY FILES ***'                           V1L5
.RD4     ANOP                                                      V1L5
         AIF  ((&PUNCH LT &READSTR) OR (&PUNCH GT &READEND)).RDONE V1L5
         MNOTE     8,'***  THE VALUE OF &&PUNCH (&PUNCH) IS IN THE RANGX
               E OF READ ONLY FILES ***'                           V1L5
.RDONE   ANOP                                                      V1L5
         MEND                                                      V1L5
./ ADD NAME=ADDLIST  0100-80001-80001-1200-00008-00008-00000-MACLIB  00
         MACRO
         ADDLIST   &NAME,&MODE
         GBLC      &FUNAME(255),&FMODE(255)
         GBLA      &NUMFUN
&NUMFUN  SETA      &NUMFUN+1
&FUNAME(&NUMFUN)   SETC      '&NAME'
&FMODE(&NUMFUN)    SETC      '&MODE'
         MEND
./ ADD NAME=AFUNCDEF 0100-80001-80001-1200-00135-00135-00000-MACLIB  00
         MACRO
         AFUNCDEF  &CORE=,&OMIT=
         GBLA      &IND1,&IND2,&FJ,&FDYN(255),&NUMFUN
         GBLC      &FSTATUS(255),&FDYA(255)
         LCLA      &L,&J,&K
&NUMFUN  SETA      0
&FJ      SETA      0
&FJ      SETA      &FJ+1
&FDYN(&FJ)   SETA  0
&IND1    SETA      1
&IND2    SETA      1
         FUNCSSET  CCOS
         FUNCSSET  CDABS
         FUNCSSET  CDCOS
         FUNCSSET  CDEXP
         FUNCSSET  CDLOG
         FUNCSSET  CDSIN
         FUNCSSET  CDSQRT
         FUNCSSET  CEXP
         FUNCSSET  CLOG
         FUNCSSET  CMPLX
         FUNCSSET  CONJG
         FUNCSSET  CSIN
         FUNCSSET  CSQRT
         FUNCSSET  DABS
         FUNCSSET  DARCOS
         FUNCSSET  DARSIN
         FUNCSSET  DATAN
         FUNCSSET  DATAN2
         FUNCSSET  DBLE
         FUNCSSET  DCMPLX
         FUNCSSET  DCONJG
         FUNCSSET  DCOS
         FUNCSSET  DCOSH
         FUNCSSET  DCOTAN
         FUNCSSET  DERF
         FUNCSSET  DERFC
         FUNCSSET  DEXP
         FUNCSSET  DFLOAT
         FUNCSSET  DGAMMA
         FUNCSSET  DLGAMA
         FUNCSSET  DLOG
         FUNCSSET  DLOG10
         FUNCSSET  DMAX1
         FUNCSSET  DMIN1
         FUNCSSET  DMOD
         FUNCSSET  DSIGN
         FUNCSSET  DSIN
         FUNCSSET  DSINH
         FUNCSSET  DSQRT
         FUNCSSET  DTAN
         FUNCSSET  DTANH
         FUNCSSET  HFIX
&FSTATUS(&IND1)    SETC    'CORERES'
.*       THIS LOOP IS THE FUNCCORE SECTION
&L       SETA      0
.LOOPC   AIF       (&L GE N'&CORE).ENDCORE
&L       SETA      &L+1
.*       FIND NAME IN (OR AT END OF ) FUNCTION DEPENDENCY TABLE
&FDYA(&FJ) SETC    '&CORE(&L)'
&J       SETA      0
.C1      ANOP
&J       SETA      &J+1
         AIF       ('&FDYA(&J)' NE '&CORE(&L)').C1
.*     SET STATUS OF NAME AND ROUTINES WHICH IT CALLS TO 'CORE'
&K       SETA      1
.C2      AIF       (&FDYN(&K) LT (&J-&K)).C3
         SETSTAT   &FDYA(&K),CORE
.C3      ANOP
&K       SETA      &K+1
         AIF       (&K LE &J).C2
         AIF       (&J NE &FJ).C1
         AGO       .LOOPC
.ENDCORE ANOP
.*       THIS IS THE FUNCOMIT SECTION
&L       SETA      0
.LOOP    AIF       (&L GE N'&OMIT).END
&L       SETA      &L+1
.*       FIND NAME IN (OR AT END OF) FUNCTION DEPENDENCY TABLE
&FDYA(&FJ) SETC    '&OMIT(&L)'
&J       SETA      0
.L1      ANOP
&J       SETA      &J+1
         AIF       ('&FDYA(&J)' NE '&OMIT(&L)').L1
.*       NOW SET STATUS OF GROUPS DEPENDING ON NAME TO 'OMIT'
&K       SETA      &J+&FDYN(&J)
.L2      ANOP
         SETSTAT   &FDYA(&J),OMIT
&J       SETA      &J+1
         AIF       (&J LE &K).L2
         AGO       .LOOP
.END     ANOP
         $FLIST1  CCOS,COMPL8
         $FLIST1  CDABS,REAL8
         $FLIST1  CDCOS,COMPL16
         $FLIST1  CDEXP,COMPL16
         $FLIST1  CDLOG,COMPL16
         $FLIST1  CDSIN,COMPL16
         $FLIST1  CDSQRT,COMPL16
         $FLIST1  CEXP,COMPL8
         $FLIST1  CLOG,COMPL8
         $FLIST1  CMPLX,COMPL8
         $FLIST1  CONJG,COMPL8
         $FLIST1  CSIN,COMPL8
         $FLIST1  CSQRT,COMPL8
         $FLIST1  DABS,REAL8
         $FLIST1  DARCOS,REAL8
         $FLIST1  DARSIN,REAL8
         $FLIST1  DATAN,REAL8
         $FLIST1  DATAN2,REAL8
         $FLIST1  DBLE,REAL8
         $FLIST1  DCMPLX,COMPL16
         $FLIST1  DCONJG,COMPL16
         $FLIST1  DCOS,REAL8
         $FLIST1  DCOSH,REAL8
         $FLIST1  DCOTAN,REAL8
         $FLIST1  DERF,REAL8
         $FLIST1  DERFC,REAL8
         $FLIST1  DEXP,REAL8
         $FLIST1  DFLOAT,REAL8
         $FLIST1  DGAMMA,REAL8
         $FLIST1  DLGAMA,REAL8
         $FLIST1  DLOG,REAL8
         $FLIST1  DLOG10,REAL8
         $FLIST1  DMAX1,REAL8
         $FLIST1  DMIN1,REAL8
         $FLIST1  DMOD,REAL8
         $FLIST1  DSIGN,REAL8
         $FLIST1  DSIN,REAL8
         $FLIST1  DSINH,REAL8
         $FLIST1  DSQRT,REAL8
         $FLIST1  DTAN,REAL8
         $FLIST1  DTANH,REAL8
         $FLIST1  HFIX,INTGER2
         MEND
./ ADD NAME=ARG      0100-80001-80001-1200-00004-00004-00000-MACLIB  00
         MACRO
&NAME    ARG       &ARG,&MODE
&NAME    DC        AL1(SIMPLVAL+&MODE),AL3(&ARG)                   V1L4
         MEND
./ ADD NAME=ASTATLIS 0100-80001-80001-1200-00015-00015-00000-MACLIB  00
         MACRO
         ASTATLIS
         GBLC      &FNAME(255),&FSTATUS(255),&FMODE(255)
         GBLA      &IND1
         LCLA      &N
         LCLC      &NAME                                           V1L4
&N       SETA      1
         MNOTE     0,'  THE STATUS OF EACH SUBPROGRAMME IS AS FOLLOWS'
.LIST    ANOP
&NAME    SETC      '&FNAME(&N)'.'       '                          V1L4
&NAME    SETC      '&NAME'(1,6)                                    V1L4
         MNOTE     *,'   &NAME    &FMODE(&N)     '                 V1L4
&N       SETA      &N+1
         AIF       (&N LT &IND1).LIST
         MEND
./ ADD NAME=BB       0100-80001-80001-1200-00012-00012-00000-MACLIB  00
         MACRO
&NAME    BB        &A,&B
         AIF       ('&B'EQ'').XXX
&NAME    DC        0H'0',AL4(&A-&B)
         AGO       .YYY
.XXX     ANOP
&NAME    DC        0H'0',AL4(&A-XIOBASE)
.YYY     ANOP
         ORG       *-4
         DC        X'47FF'
         ORG       *+2
         MEND
./ ADD NAME=BEGOBJ   0100-80001-80001-1200-00003-00003-00000-MACLIB  00
         MACRO
&A       BEGOBJ    &B
         MEND
./ ADD NAME=BER      0100-80001-80001-1200-00004-00004-00000-MACLIB  00
         MACRO
&NAME    BER       &REG
&NAME    BCR       8,&REG
         MEND
./ ADD NAME=BHR      0100-80001-80001-1200-00004-00004-00000-MACLIB  00
         MACRO
&NAME    BHR       &REG
&NAME    BCR       2,&REG
         MEND
./ ADD NAME=BINTREE  0100-80001-80001-1200-00039-00039-00000-MACLIB  00
         MACRO
         BINTREE
         GBLA      &NUMFUN,&HCHAIN(255),&LCHAIN(255)
         GBLA      &HEAD
         LCLA      &TOP,&HI,&LOW,&STACK(255)
         LCLA &L,&NXTOP,&N,&NOTE(255)
         LCLA      &LINK
&LOW     SETA      1
&TOP     SETA      &NUMFUN+1
&STACK(&TOP)       SETA      &TOP
&HEAD    SETA      (&LOW+&TOP)/2
.AGAIN   ANOP
&HI      SETA      &STACK(&TOP)
&L       SETA      (&LOW+&HI)/2
&TOP     SETA      &TOP-1
&STACK(&TOP)       SETA      &L
         AIF       (&NOTE(&L) EQ 1).POPUP
&LINK    SETA      &TOP+1
&LCHAIN(&STACK(&LINK))       SETA   &L
&NOTE(&STACK(&LINK))    SETA    1
         AIF       (&HCHAIN(&L) EQ &STACK(&LINK)).RESET1
.TEST    AIF       (&L EQ &LOW).POPUP
         AGO       .AGAIN
.RESET1  ANOP
&LCHAIN(&STACK(&LINK))  SETA      0
         AGO       .TEST
.POPUP   ANOP
&TOP     SETA      &TOP+1
         AIF       (&STACK(&TOP) EQ (&NUMFUN+1)).END
&NXTOP   SETA      &TOP+1
         AIF       ((&STACK(&NXTOP)-&STACK(&TOP)) EQ 1).POPUP
&LOW     SETA      &STACK(&TOP)
&HI      SETA      &STACK(&NXTOP)
&N       SETA      (&LOW+&HI)/2
&HCHAIN(&STACK(&TOP))   SETA &N
&STACK(&TOP)       SETA      &N
         AGO       .AGAIN
.END     ANOP
         MEND
./ ADD NAME=BLR      0100-80001-80001-1200-00004-00004-00000-MACLIB  00
         MACRO
&NAME    BLR       &REG
&NAME    BCR       4,&REG
         MEND
./ ADD NAME=BNER     0100-80001-80001-1200-00004-00004-00000-MACLIB  00
         MACRO
&NAME    BNER      &REG
&NAME    BCR       7,&REG
         MEND
./ ADD NAME=BNEW     0100-80001-80001-1200-00004-00004-00000-MACLIB  00
         MACRO
&NAME    BNEW      &LABEL
&NAME    BE        &LABEL
         MEND
./ ADD NAME=BNHR     0100-80001-80001-1200-00004-00004-00000-MACLIB  00
         MACRO
&NAME    BNHR      &R
&NAME    BCR       13,&R
         MEND
./ ADD NAME=BNLCR    0100-80001-80001-1200-00006-00006-00000-MACLIB  00
         MACRO
&NAME    BNLCR     &REG
&NAME    BCR       12,&REG
.*   BRANCH NOT LOGICAL CARRY TO &REG
.*   CONDITION CODE SET BY PREVIOUS  LOGICAL ADD OR SUBTRACT
         MEND
./ ADD NAME=BNLR     0100-80001-80001-1200-00004-00004-00000-MACLIB  00
         MACRO
&A       BNLR      &B
&A       BCR       11,&B
         MEND
./ ADD NAME=BNMR     0100-80001-80001-1200-00004-00004-00000-MACLIB  00
         MACRO
&A       BNMR      &B
&A       BCR       11,&B
         MEND
./ ADD NAME=BNOR     0100-80001-80001-1200-00004-00004-00000-MACLIB  00
         MACRO
&NAME    BNOR      &REG
&NAME    BCR       14,&REG
         MEND
./ ADD NAME=BNPR     0100-80001-80001-1200-00004-00004-00000-MACLIB  00
         MACRO
&NAME    BNPR      &REG
&NAME    BCR       13,&REG
         MEND
./ ADD NAME=BNZR     0100-80001-80001-1200-00004-00004-00000-MACLIB  00
         MACRO
&A       BNZR      &B
&A       BCR       7,&B
         MEND
./ ADD NAME=BOLD     0100-80001-80001-1200-00004-00004-00000-MACLIB  00
         MACRO
&NAME    BOLD      &LABEL
&NAME    BNE       &LABEL
         MEND
./ ADD NAME=BOR      0100-80001-80001-1200-00004-00004-00000-MACLIB  00
         MACRO
&LABEL   BOR       &REG
&LABEL   BCR       1,&REG
         MEND
./ ADD NAME=BPR      0100-80001-80001-1200-00004-00004-00000-MACLIB  00
         MACRO
&NAME    BPR       &REG
&NAME    BCR       2,&REG
         MEND
./ ADD NAME=BZR      0100-80001-80001-1200-00004-00004-00000-MACLIB  00
         MACRO
&NAME    BZR       &REG
&NAME    BCR       8,&REG
         MEND
./ ADD NAME=CALLDCL  0100-80001-80001-1200-00010-00010-00000-MACLIB  00
         MACRO
&NAME    CALLDCL   &DNAME,&LEVEL
         CNOP      2,4
         USING     *,R15
&NAME    L     R4,=V(XC@LDC)                                       V1L4
          BALR     R15,R4
         DROP      R15                                             V1L4
         DC        CL8'&NAME'
         DC    A(&DNAME)                                           V1L4
         MEND
./ ADD NAME=CALLDUBL 0100-80001-80001-1200-00012-00012-00000-MACLIB  00
         MACRO
&NAME    CALLDUBL  &DNAME
         LCLA      &M
&M       SETA      N'&SYSLIST-1
         CNOP      2,4
         USING     *,R15
&NAME    L     R4,=V(XC@LD&M)                                      V1L4
         BALR      R15,R4
         DROP      R15                                             V1L4
         DC        CL8'&NAME'
         DC    A(&DNAME)                                           V1L4
         MEND
./ ADD NAME=CBALR    0100-80001-80001-1200-00005-00005-00000-MACLIB  00
         MACRO
&A       CBALR
&A       BALR      RP,0
         USING     *,RP
         MEND
./ ADD NAME=CCTABLE  0100-80001-80001-1200-00015-00015-00000-MACLIB  00
         MACRO
         CCTABLE
         GBLC      &CCTAB1(255)
         GBLA      &CCTAB2(255)
         LCLA      &NUM,&I,&LINES
&I       SETA      1
&NUM     SETA      N'&SYSLIST
.LOOP      ANOP
&CCTAB1(&I)   SETC   '&SYSLIST(&I,1)'(2,1)
&CCTAB2(&I)  SETA   &SYSLIST(&I,2)
&I       SETA      &I+1
         AIF       (&I LE &NUM).LOOP
&CCTAB1(&I) SETC  '$'
&CCTAB2(&I)  SETA  1
         MEND
./ ADD NAME=CDROP    0100-80001-80001-1200-00004-00004-00000-MACLIB  00
         MACRO
&A       CDROP     &B
         FREE      &B(2)                                           V1L4
         MEND
./ ADD NAME=CENT     0100-80001-80001-1200-00011-00011-00000-MACLIB  00
         MACRO
&LABEL   CENT      &SAVER
         GBLA      &CENT#
&CENT#   SETA      &CENT#+1
         CNOP      0,4
&LABEL   STM       R14,R11,12(R13)
         BAL       RP,CENT
         USING     *,RP
         DC        A(&SAVER)                                       V1L4
         USING     &SAVER,R13
         MEND
./ ADD NAME=CHCKA    0100-80001-80001-1200-00017-00017-00000-MACLIB  00
         MACRO
&NAME    CHCKA     &ADDR,&MODE,&VL                                 V1L4
         LCLC      &D                                              V1L4
&D       SETC      '&ADDR'(1,1)                                    V1L4
&NAME    CLI       &ADDR,SIMPLVAL+&MODE                            V1L4
         BE        *+12                                            V1L4
         CLI       &ADDR,&MODE
         AIF       ('&VL' NE '').VL    VARIABLE-LENGTH ARGLIST FLAG ?L4
         AIF       ('&D' EQ '4' OR '&D' EQ '0').OK                 V1L4
         MNOTE     8,'### INVALID USE OF CHCKA ###'                V1L4
.OK      BNE       XBADARG+4-&D                                    V1L4
         MEXIT                                                     V1L4
.VL      AIF       ('&VL' NE 'VL').BADVL                           V1L4
         AIF       ('&D' EQ '0').OKVL                              V1L4
.BADVL   MNOTE     8,'### INVALID VL USE OF CHCKA ###'             V1L4
.OKVL    BNE       XVLARGS                                         V1L4
         MEND
./ ADD NAME=CHCKA2   0100-80001-80001-1200-00007-00007-00000-MACLIB  00
         MACRO
&NAME    CHCKA2    &ADDR,&MODE
&NAME    TM        &ADDR,ARRAYELM      LAST ARG WAS ARRAY ELT ?    V1L4
         BNO       *+8
         LA        R1,4(,R1)
         CHCKA     &ADDR,&MODE
         MEND
./ ADD NAME=CHCKDEF  0100-80001-80001-1200-00005-00005-00000-MACLIB  00
         MACRO
&NAME    CHCKDEF   &MODE,&ADDR
&NAME    CLC       XUNDEF(L&MODE),&ADDR
         EX        R0,XNOPDEFZ
         MEND
./ ADD NAME=CHCKL    0100-80001-80001-1200-00015-00015-00000-MACLIB  00
         MACRO
&NAME    CHCKL     &ADDR,&MODE,&IFNOT                              V1L4
         LCLC      &D
&D       SETC      '&ADDR'(1,1)
&NAME    TM        &ADDR,ARRAYELM      LAST ARG WAS ARRAY ELT ?    V1L4
         BNO       *+8
         LA        R1,4(,R1)
         CLI       &ADDR,FNARGTRM+&MODE  PROPER MODE AND TYPE ?    V1L4
         AIF       ('&IFNOT' NE '').IFNOT                          V1L4
         AIF       ('&D' EQ '4' OR '&D' EQ '8' OR '&D' EQ '0').OK
         MNOTE  ' *** INVALID USE OF CHCKL *** '
.OK      BNE       XFENT99+8-&D
         MEXIT                                                     V1L4
.IFNOT   BNE       &IFNOT                                          V1L4
         MEND                                                      V1L4
./ ADD NAME=CHCKLF   0100-80001-80001-1200-00006-00006-00000-MACLIB  00
         MACRO
&NAME    CHCKLF
&NAME    IF        (ZR1,LAST),XERRSR21
         B         XERRSR41
         MNOTE     8,'###CHCKLF MACRO IS TO BE RETIRED###'         V1L4
         MEND
./ ADD NAME=CHCKLSR  0100-80001-80001-1200-00004-00004-00000-MACLIB  00
         MACRO
&NAME    CHCKLSR   &ADDR
&NAME    CHCKL     &ADDR,SPARGTRM-FNARGTRM                         V1L4
         MEND
./ ADD NAME=CLABLE   0100-80001-80001-1200-00005-00005-00000-MACLIB  00
         MACRO
&A       CLABLE    &B
         AIF       ('&A'EQ'').A
&A       DC        0H'0'
.A       MEND
./ ADD NAME=CLINK1   0100-80001-80001-1200-00026-00026-00000-MACLIB  00
         MACRO
&A       CLINK1    &B,&C,&D
         AIF       ('&D'EQ'').A1
&A       L         &D,=A(&B)                                       V1L5
         AGO       .A5
.A1      ANOP
&A       L         RW,=A(&B)                                       V1L5
.A5      AIF       ('&C'EQ'').A2
         AIF       ('&C'EQ'DONE').A3
         AIF       ('&C'EQ'LOOP').A4
         LA        RDONE,&C
         AGO       .A3
.A4      ANOP
         LR        RDONE,R&C
.A3      AIF       ('&D'EQ'').A7
         BR        &D
         MEXIT
.A7      ANOP
         BR        RW
         MEXIT
.A2      AIF       ('&D'EQ'').A6
         BALR      RDONE,&D
         MEXIT
.A6      ANOP
         BALR      RDONE,RW
         MEND
./ ADD NAME=CMENT    0100-80001-80001-1200-00008-00008-00000-MACLIB  00
         MACRO
&A       CMENT     &B,&C
         CNOP      0,4
&A       STM       R14,R11,12(R13)
         BAL       RDONE,CMENT
         DC        A(&B)                                           V1L4
         DC        A(&C+CENTUSE-CENTSEQ)                           V1L4
         MEND
./ ADD NAME=COREGEN  0100-80001-80001-1200-00015-00015-00000-MACLIB  00
         MACRO
         COREGEN
         GBLC      &LIBSTAK,&CORLIST(255)
         GBLA      &CORE#
         AIF       ('&LIBSTAK' EQ 'USE').LOOP
         DC        0D'0'
DMYNAME  DC        CL8' '
DMYTTR   DC        4X'00'
STAKBOT  EQU       *
.LOOP    ANOP
         DC        CL8'&CORLIST(&CORE#)',4X'00'
&CORE#   SETA      &CORE#-1
         AIF       (&CORE# NE 0).LOOP
TABLE    EQU       *-12
         MEND
./ ADD NAME=CRET     0100-80001-80001-1200-00004-00004-00000-MACLIB  00
         MACRO
&LABEL   CRET
&LABEL   B         CRET
         MEND
./ ADD NAME=CSNAP    0100-80001-80001-1200-00037-00037-00000-MACLIB  00
         MACRO
&NAME    CSNAP     &IDENT,&ADDR,&NBYTES
         GBLC      &SNAPS
         GBLA      &SNAPS#
&SNAPS#  SETA      &SNAPS#+1
         AIF       ('&NAME'EQ'').SNAPS1
         MNOTE     '***ERROR*** LABLE INVALID IN SNAP MACRO'
.SNAPS1  ANOP
         AIF       ('&SNAPS'EQ'OMIT').SNAPS2
         STM       R14,R12,XSNAPSAV+12
         AIF       ('&ADDR' EQ '').A
         AIF       ('&ADDR'(1,1)EQ'(').X
         LA        R1,&ADDR
         AGO       .A
.X       ANOP
         AIF       ('&ADDR'EQ'(R1)').A
         LR        R1,&ADDR
.A       ANOP
         AIF       ('&NBYTES' EQ '').B
         AIF       ('&NBYTES'(1,1)EQ'(').Y
         AIF       ('&NBYTES'NE'1').ZZZ
         SR        R2,R2
         AGO       .B
.ZZZ     ANOP
         LA        R2,&NBYTES
         BAL       R104,XSNAP1
         AGO       .Z
.Y       ANOP
         AIF       ('&NBYTES'EQ'(R2)').B
         LR        R2,&NBYTES
.B       ANOP
         BAL       R104,XSNAP
.Z       ANOP
         DC        CL8'&IDENT '
         LM        R14,R12,XSNAPSAV+12
.SNAPS2  ANOP
         MEND
./ ADD NAME=DEXTRN   0100-80001-80001-1200-00006-00006-00000-MACLIB  00
         MACRO
         DEXTRN    &FN
         GBLC      &FUNCMOD
         AIF       ('&FUNCMOD' NE 'DISK').DEND
         EXTRN     &FN
.DEND    MEND
./ ADD NAME=DISK     0100-80001-80001-1200-00009-00009-00000-MACLIB  00
         MACRO                                                     V1L4
         DISK
         GBLB  &DVSD                                               V1L5
         COPY  CDEFN                                               V1L4
FUNCREFS DSECT                                                     V1L4
         FUNCREFS                                                  V1L4
         FUNCDEFS                                                  V1L4
         ERRTABLE                                                  V1L4
         MEND                                                      V1L4
./ ADD NAME=EMESSAGE 0100-80001-80001-1200-00024-00024-00000-MACLIB  00
         MACRO
         EMESSAGE &A,&B,&TEXT,&D,&E
         GBLC  &WATTYPE,&ERROPT,&ERRSTAT
         LCLC      &C1,&C2                                         V1L3
         AIF   ('&ERROPT' EQ 'CODE').NEXT
         AIF   ('&ERROPT' NE 'READ').BYPASS1
         ERRSTAT &A&B
         AIF   ('&ERRSTAT' NE 'CORE').NEXT
.BYPASS1 ANOP
&C1      SETC  '&A'
&C2      SETC  '&B'
         AIF   ('&D' EQ '').USEW5
&C1      SETC  '&D'
&C2      SETC  '&E'
.USEW5   AIF   ('&WATTYPE' EQ 'DISTR').PROPER
         DC        AL1($C&SYSNDX-&A&B.TEXT-1) LENGTH-1 OF TEXT     V1L5
&A&B.TEXT DC    C'&C1-&C2 ',C&TEXT
$C&SYSNDX EQU *                                                    V1L5
         MEXIT
.PROPER  ANOP
         DC        AL1($C&SYSNDX-&A&B.TEXT-1) LENGTH-1 OF TEXT     V1L5
&A&B.TEXT DC    C&TEXT
$C&SYSNDX EQU *                                                    V1L5
.NEXT    MEND
./ ADD NAME=ENDOBJ   0100-80001-80001-1200-00003-00003-00000-MACLIB  00
         MACRO
&A       ENDOBJ    &B
         MEND
./ ADD NAME=EQUREGS  0100-80001-80001-1200-00020-00020-00000-MACLIB  00
      MACRO
&ADDR    EQUREGS
&ADDR    DS        0H
R0       EQU       0
R1       EQU       1
R2       EQU       2
R3       EQU       3
R4       EQU       4
R5       EQU       5
R6       EQU       6
R7       EQU       7
R8       EQU       8
R9       EQU       9
R10      EQU       10
R11      EQU       11
R12      EQU       12
R13      EQU       13
R14      EQU       14
R15      EQU       15
         MEND
./ ADD NAME=ERRCODE  0100-80001-80001-1200-00087-00087-00000-MACLIB  00
         MACRO
&NAME    ERRCODE   &LIST
         GBLC      &AC(8),&IN(21)
         GBLA      &EXPAND,&IACMAX,&IINMAX
         LCLA      &IAC,&IIN,&BUFV,&FLAG
         LCLC      &INP,&REG,&MESNO,&ERCD,&ACTN,&ACD,&NCD
&REG     SETC      '0'
&MESNO   SETC      '0'
         AIF       (&EXPAND GT 0).CHKACTN
.*  THE FOLLOWING DEFINITIONS ARE DONE ONCE PER ASSEMBLY
&EXPAND  SETA      1
&AC(1)   SETC      'LANG'              0
&AC(2)   SETC      'WARN'              1
&AC(3)   SETC      'BOOT'              2
&AC(4)   SETC      'ZERO'              3
&AC(5)   SETC      'NOEX'              4
&AC(6)   SETC      'NOAC'              5
&AC(7)   SETC      'TRAZ'              6
&IACMAX  SETA      8
&IN(1)   SETC      'SYM'               1
&IN(2)   SETC      'DEL'               2
&IN(3)   SETC      'STN'               3
&IN(4)   SETC      'ISN'               4
&IN(5)   SETC      'REL'               5
&IN(6)   SETC      'NAM'               6
&IN(7)   SETC      'CSN'               7
&IN(8)   SETC      'USN'               8
&IN(9)   SETC      'CHR'               9
&IN(10)  SETC      'VM8'              10
&IN(11)  SETC      'VM6'              11
&IN(12)  SETC      'VAR'              12
&IN(13)  SETC      'NAV'              13
&IN(14)  SETC      'NSS'              14
&IN(15)  SETC      'INT'              15
&IN(16)  SETC      'ARR'              16
&IN(17)  SETC      'NAL'              17
&IN(18)  SETC      'VLS'              18
&IN(19)  SETC      'LIN'              19
&IN(20)  SETC      'ENT'              20
&IINMAX  SETA      21
.*  CHECK ACTION PARAMETER
.CHKACTN ANOP
&ACTN    SETC      '&LIST(1)'
&AC(&IACMAX) SETC  '&ACTN'
.ACLOOP  ANOP
&IAC     SETA      &IAC+1
         AIF       ('&ACTN' NE '&AC(&IAC)').ACLOOP
         AIF       (&IAC NE &IACMAX).CHKCODE
         MNOTE     '    &ACTN IS INVALID ACTION PARAMETER'
.*    CHECK ERROR CODE PARAMETERS
.CHKCODE ANOP
&ACD     SETC      '&LIST(2)'
&NCD     SETC      '&LIST(3)'
         AIF       ('&ACD' NE 'POINTER').CHK1
&ERCD    SETC      '&NCD'
         AGO       .CHKINFO
.CHK1    AIF       ('&ACD' NE 'INREG').CHK2
&ERCD    SETC      '&NCD'.'+16'
         AGO       .CHKINFO
.CHK2    ANOP
&ERCD    SETC      '&ACD'.'&NCD'
.*     CHECK INFO PARAMETERS
.CHKINFO AIF       (T'&LIST(4) EQ 'O' OR K'&LIST(4) EQ 0).CHKMES
&FLAG    SETA      1
&INP     SETC      '&LIST(4)'(1,3)
&IN(&IINMAX) SETC  '&INP'
.INFLOOP ANOP
&IIN     SETA      &IIN+1
         AIF       ('&INP' NE '&IN(&IIN)').INFLOOP
         AIF       (&IIN NE &IINMAX).OKIN
         MNOTE     '    &INP IS INVALID INFO KEYWORD'
         AGO       .CHKMES
.OKIN    ANOP