         MACRO                                                    MACRO
&NAME    P$BEGIN ,                                                MACRO
         GBLC  &ENDPROC                                           MACRO
&ENDPROC SETC  'PROC&SYSNDX'                                      MACRO
$LTORG   LOCTR                         ADDRESSABLE CODE           MACRO
&NAME    BAL   R15,=X'4AF0,F000,07FF'  ADD HWORD OFFSET, BR FAR   MACRO
         DC    Y(&ENDPROC-*)           OFFSET TO FAR ROUTINE      MACRO
$FARRTNE LOCTR                         FAR ROUTINES               MACRO
         DS    0D                                            <38J>MACRO
         DC    CL8'&NAME'                                    <38J>MACRO
&ENDPROC BALR  R12,0                   LOCAL BASE                 MACRO
         USING *,R12                   DROPPED BY P$END           MACRO
         LA    R15,PEND&SYSNDX         LOAD RETRY ADDRESS         MACRO
         STM   R14,R15,P$END           RETURN/RETRY ADDRESSES     MACRO
&ENDPROC SETC  'PEND&SYSNDX'           FOR P$END MACRO            MACRO
.MEND    MEND                                                     MACRO
