         MACRO                                                    MACRO
&NAME    P$END         ,                                          MACRO
         GBLC  &ENDPROC                                           MACRO
         AIF   (T'&NAME EQ 'O').END2                              MACRO
&NAME    EQU   *                                                  MACRO
.END2    ANOP                                                     MACRO
&ENDPROC L     R14,P$END               RETURN ADDR                MACRO
         BR    R14                                                MACRO
         DROP  R12                     SET BY P$BEGIN        <38J>MACRO
.MEND    MEND                                                     MACRO
