         MACRO
&NAME    RLTPLST &DSECT=
.*
.* Define plist to call RLTSUB in the calling program as well
.* as a DSECT in the RLTSUB to map the plist.
.*
.* 06/95 axb
.*
         AIF   ('&DSECT' NE 'YES').NODSECT
RLTPLST  DSECT
         AGO   .COMMON
.NODSECT ANOP
&NAME    DS    0F
.COMMON  ANOP
RLTPLST_SAVEAREA DS 18F           ; Save area for RLTSUB
RESULT   DS    F                  ; address of result, in a format
*                                 ; AL4(LENGTH), C'RESULT_DATA'
EVB      DS    F                  ; EVALBLOCK address.
ENV      DS    F                  ; Saved address of ENVIRONMENT BLOCK
*.
*. IRXRLT plist
*.
RLTPL    DS    0D                 ; IRXRLT plist for getting EVALBLOCK
RLTPL1   DS    F                  ; Points to CL8'GETBLOCK'
RLTPL2   DS    F                  ; Points to EVALBLOCK address
*                                 ; ...to be returned, A(RLTA2)
RLTPL3   DS    F                  ; Points to the length of a data
*                                 ; ...area in the requested EVALBLOCK,
*                                 ; ...A(RLTA3)
         ORG   RLTPL3
         DC    X'80',AL3(0)       ; Last parameter, set in program
         ORG   ,
*
RLTA2    DS    F                  ; 0 on entry; EVALBLOCK address
*                                 ; ... returned
RLTA3    DS    F                  ; Length of data for new EVALBLOCK
*                                 ; ... set by the program
         MEND
