*---------------------------------------------------------------------*
*  Copyright 2011 by Clemson University Research Foundation           *
*                                                                     *
*  Licensed under the Apache License, Version 2.0 (the "License");    *
*  you may not use this file except in compliance with the License.   *
*  You may obtain a copy of the License in this library as member     *
*  $LICENSE, or from                                                  *
*                                                                     *
*      http://www.apache.org/licenses/LICENSE-2.0                     *
*                                                                     *
*  Unless required by applicable law or agreed to in writing,         *
*  software distributed under the License is distributed on an "AS    *
*  IS" BASIS, WITHOUT WARRANTIES OR CONDITIONS OF ANY KIND, either    *
*  express or implied.  See the License for the specific language     *
*  governing permissions and limitations under the License.           *
*---------------------------------------------------------------------*
*---------------------------------------------------------------------*
*
*  Macro:      SRV##RC
*
*  Purpose:    Test named service processor condition code.
*
*  Change
*  History:    11/25/89 MJM - New
*
*---------------------------------------------------------------------*
            MACRO
&NAME       SRV##RC &EXPR,&S=,&F=,&L=
            LCLC    &V_RCNAME
            AIF     (N'&EXPR EQ 1).DOIT
            MNOTE   8,'Specify only the Service processor condition cod+
               e name.'
            MEXIT
.DOIT       ANOP
&V_RCNAME   SETC    '&EXPR(1)'(2,K'&EXPR(1)-1)
            GBLA    &(&V_RCNAME)
            AIF     ('&(&V_RCNAME)' EQ '0').LTR
&NAME       CH      R15,=H'&(&V_RCNAME)'   | Test return-code's value.
            ##COND  EQ,S=&S,F=&F,L=&L
            MEXIT
.LTR        ANOP
&NAME       LTR     R15,R15                | Test for zero return-code.
            ##COND  Z,S=&S,F=&F,L=&L
            MEND
