*---------------------------------------------------------------------*
*  Copyright 2011 by Clemson University Research Foundation           *
*                                                                     *
*  Licensed under the Apache License, Version 2.0 (the "License");    *
*  you may not use this file except in compliance with the License.   *
*  You may obtain a copy of the License in this library as member     *
*  $LICENSE, or from                                                  *
*                                                                     *
*      http://www.apache.org/licenses/LICENSE-2.0                     *
*                                                                     *
*  Unless required by applicable law or agreed to in writing,         *
*  software distributed under the License is distributed on an "AS    *
*  IS" BASIS, WITHOUT WARRANTIES OR CONDITIONS OF ANY KIND, either    *
*  express or implied.  See the License for the specific language     *
*  governing permissions and limitations under the License.           *
*---------------------------------------------------------------------*
 TITLE 'SRVIMIMC: Item Manager Service Processor Internal Macros.'
*---------------------------------------------------------------------*
*
*  Copy File:  SRVIMIMC
*
*  Purpose:    Item Manager Service Processor internal macros.
*
*  Description: See "Service Processors User's Guide and Reference".
*
*  Change
*  History:    10/12/89 MGG - New
*
*---------------------------------------------------------------------*
*
         MACRO
&TAG     IM_DIR &DSECT=YES,&ID=DIR
*---------------------------------------------------------------------*
*
*  Macro:      IM_DIR
*
*  Title:      Item Manager Directory Entry.
*
*  Purpose:    This macro maps a item manager directory entry.
*
*  Special
*  Notes:      Associated with Item Manager.
*
*  Change
*  History:    03/21/89 MGG - New
*
*---------------------------------------------------------------------*
         SPACE 1
         LCLC  &I,&NAME
&I       SETC  '&ID'
&NAME    SETC  '&ID'
         AIF   ('&TAG' EQ '').NOTAG
&NAME    SETC  '&TAG'
.NOTAG   ANOP
         AIF ('&DSECT' EQ 'NO').NODSECT
&NAME    DSECT
         AGO .TG1
.NODSECT ANOP
&NAME    DS    0F
.TG1     ANOP
&I.ITYPE DS    H                      | Item type (of "item type"!).
&I.NAME  DS    CL64                   | Name.
         DS    3F                     | Reserved.
&I.LINKS DS    0F                     | Start of links.
&I.DESC  DS    F                      | Description.
&I.TKN   DS    F                      | Token that is saved.
&I.NXDIR DS    F                      | Next DIR.
&I.#LNKS EQU   (*-&I.LINKS)/4         | Number of links.
&I.ITMSZ EQU   *-&NAME                | Length of this item.
         SPACE 1                      |
         MEND                         |
*
*
*
         MACRO
&TAG     IM_DSC &DSECT=YES,&ID=DSC
*---------------------------------------------------------------------*
*
*  Macro:      IM_DSC
*
*  Title:      Description Item
*
*  Purpose:    This macro maps a description.
*
*  Special
*  Notes:      Associated with Item Manager.
*
*  Change
*  History:    03/21/89 MGG - New
*
*---------------------------------------------------------------------*
         SPACE 1
         LCLC  &I,&NAME
&I       SETC  '&ID'
&NAME    SETC  '&ID'
         AIF   ('&TAG' EQ '').NOTAG
&NAME    SETC  '&TAG'
.NOTAG   ANOP
         AIF ('&DSECT' EQ 'NO').NODSECT
&NAME    DSECT
         AGO .TG1
.NODSECT ANOP
&NAME    DS    0F
.TG1     ANOP
&I.ITYPE DS    H                      | Item type.
&I.SIZE  DS    X                      | Size of string plus 3.
&I.TEXT  EQU   *                      | Text of description.
         MEND                         |
         MACRO
&TAG     IM_FSI &DSECT=YES,&ID=FSI
*---------------------------------------------------------------------*
*
*  Macro:      IM_FSI
*
*  Title:      Free Space Item
*
*  Purpose:    This macro maps an free space item.
*
*  Special     Associated with Item Manager.
*  Notes:
*
*  Change
*  History:    02/27/89 MGG - New
*
*---------------------------------------------------------------------*
         SPACE 1
         LCLC  &I,&NAME
&I       SETC  '&ID'
&NAME    SETC  '&ID'
         AIF   ('&TAG' EQ '').NOTAG
&NAME    SETC  '&TAG'
.NOTAG   ANOP
         AIF ('&DSECT' EQ 'NO').NODSECT
&NAME    DSECT
         AGO .TG1
.NODSECT ANOP
&NAME    DS    0F
.TG1     ANOP
&I.ITYPE DS    H                      | Item-type token.
&I.NU1   DS    H                      | Always has a -1.
&I.LINKS DS    0F                     | Start of links.
&I.NXFSI DS    F                      | Token of next free space.
&I.#LNKS EQU   (*-&I.LINKS)/4         | Number of links.
&I.SIZE  DS    F                      | Size of free space.
         SPACE 1                      |
&I.ITMSZ EQU   *-&NAME                | Length of this item.
         MEND                         |
         MACRO
&TAG     IM_GRD &DSECT=YES,&ID=GRD
*---------------------------------------------------------------------*
*
*  Macro:      IM_GRD
*
*  Title:      Group Descriptor
*
*  Purpose:    This macro maps a group descriptor.
*
*  Special
*  Notes:      Associated with Item Manager.
*
*  Change
*  History:    02/27/89 MGG - New
*
*---------------------------------------------------------------------*
         SPACE 1
         LCLC  &I,&NAME
&I       SETC  '&ID'
&NAME    SETC  '&ID'
         AIF   ('&TAG' EQ '').NOTAG
&NAME    SETC  '&TAG'
.NOTAG   ANOP
         AIF ('&DSECT' EQ 'NO').NODSECT
&NAME    DSECT
         AGO .TG1
.NODSECT ANOP
&NAME    DS    0F
.TG1     ANOP
&I.ITYPE DS    H                      | Item type.
&I.MMTHD DS    H                      | Storage management method.
&I.INCSZ DS    F                      | Increment size.
&I.LINKS DS    0F                     | Start of links.
&I.DESC  DS    F                    1 | Description.
&I.FRGSS DS    F                    2 | First GSS for block.
&I.TDFSI DS    F                    3 | Item type descriptor for FSI.
&I.NXGRD DS    F                    4 | Pointer to next GRD.
&I.#LNKS EQU   (*-&I.LINKS)/4         | Number of links.
         SPACE 1                      |
&I.ITMSZ EQU   *-&NAME                | Length of this item.
         MEND                         |
         MACRO
&TAG     IM_GSS &DSECT=YES,&ID=GSS
*---------------------------------------------------------------------*
*
*  Macro:      IM_GSS
*
*  Title:      Group Storage Segment
*
*  Purpose:    This macro maps a group storage segment entry.
*
*  Special
*  Notes:      Associated with Item Manager.
*
*  Change
*  History:    03/12/89 MGG - New
*
*---------------------------------------------------------------------*
         SPACE 1
         LCLC  &I,&NAME
&I       SETC  '&ID'
&NAME    SETC  '&ID'
         AIF   ('&TAG' EQ '').NOTAG
&NAME    SETC  '&TAG'
.NOTAG   ANOP
         AIF ('&DSECT' EQ 'NO').NODSECT
&NAME    DSECT
         AGO .TG1
.NODSECT ANOP
&NAME    DS    0F
.TG1     ANOP
&I.ITYPE DS    H                      | Item type.
         DS    H                      | Not used.
&I.SIZE  DS    F                      | Size of segment.
&I.USED  DS    F                      | Storage used in segment.
&I.LRGST DS    F                      | Largest free space.
&I.LINKS DS    0F                     | Start of links.
&I.START DS    F                    1 | Token of first item in segment.
&I.NXGSS DS    F                    2 | Next GSS.
&I.FRFSI DS    F                    3 | First FSI for this segment.
&I.#LNKS EQU   (*-&I.LINKS)/4         | Number of links.
         SPACE 1                      |
&I.ITMSZ EQU   *-&NAME                | Length of this item.
         MEND                         |
         MACRO
&TAG     IM_HTD &DSECT=YES,&ID=HTD
*---------------------------------------------------------------------*
*
*  Macro:      IM_HTD
*
*  Title:      Hash Table Descriptor
*
*  Purpose:    This macro maps a hash table descriptor.
*
*  Special
*  Notes:      Associated with Item Manager.
*
*  Change
*  History:    02/27/89 MGG - New
*
*---------------------------------------------------------------------*
         SPACE 1
         LCLC  &I,&NAME
&I       SETC  '&ID'
&NAME    SETC  '&ID'
         AIF   ('&TAG' EQ '').NOTAG
&NAME    SETC  '&TAG'
.NOTAG   ANOP
         AIF ('&DSECT' EQ 'NO').NODSECT
&NAME    DSECT
         AGO .TG1
.NODSECT ANOP
&NAME    DS    0F
.TG1     ANOP
&I.ITYPE DS    H                      | Item type.
&I.OP    DS    BL1                    | Options:
&I.OPDUP EQU   B'10000000'            |   Duplicate keys allowed.
&I.F1    DS    BL1                    | Flag:
&I.F1KSI EQU   B'10000000'            |   Key size in item.
&I.KSZ   DS    F                      | Size of key if fixed (max 255)
&I.KSZOF EQU   &I.KSZ                 | Offset of size in item.
&I.KOF   DS    F                      | Key offset in item.
&I.SIZE  DS    F                      | Size of this item.
&I.SYLK# DS    F                      | Synonym link number in item.
&I.#LNKS DS    F                      | Number of links.
&I.LINKS DS    0F                     | Start of links.
&I.DESC  DS    F                    1 | Description link.
&I.MTITD DS    F                    2 | Optional token for member ITD.
&I.TABLE DS    0F                   3 | Start of hash table.
&I.TABLE_LINK_# EQU (*-&I.LINKS)/4    | Start of table link number.
         SPACE 1                      |
&I.ITMSZ EQU   *-&NAME                | Length of this item not
*                                     |  counting the hash table.
         MEND
         MACRO
&TAG     IM_IMC &DSECT=YES,&ID=IMC
*---------------------------------------------------------------------*
*
*  Macro:      IM_IMC
*
*  Title:      Item Manager Control
*
*  Purpose:    This macro maps the item manager control block.
*
*  Special
*  Notes:      Associated with Item Manager.
*
*  Change
*  History:    02/27/89 MGG - New
*
*---------------------------------------------------------------------*
         SPACE 1
         LCLC  &I,&NAME
&I       SETC  '&ID'
&NAME    SETC  '&ID'
         AIF   ('&TAG' EQ '').NOTAG
&NAME    SETC  '&TAG'
.NOTAG   ANOP
         AIF ('&DSECT' EQ 'NO').NODSECT
&NAME    DSECT
         AGO .TG1
.NODSECT ANOP
&NAME    DS    0F
.TG1     ANOP
&I.ITYPE DS    H                      | Item-type token.
&I.F1    DS    BL1                    | Flags.
&I.F1INT EQU   B'10000000'            |   Has been initialized.
&I.F1OPN EQU   B'01000000'            |   Is open.
&I.F1SAV EQU   B'00100000'            |   In the process of being saved
&I.LEVEL DS    FL1                    | Level of data set.
&I.PGMNM DS    CL8                    | Item Manager Name.
&I.CRJBN DS    CL8                    | Creation jobname.
&I.CRDAT DS    PL4                    | Creation date.
&I.CRTIM DS    F                      | Creation time.
*  Next 5 fields must be together     |
&I.4MORE DS    XL((8+4+4)*4)          | 4 previous update job/date/time
&I.LSJBN DS    CL8                    | Last job to update.
&I.LSDAT DS    PL4                    | Last date.
&I.LSTIM DS    F                      | Last time.
&I.LSSZ  EQU   *-&I.LSJBN             |
*                                     |
&I.#SGSS DS    F                      | Number of spare GSSs.
         DS    10F                    | Not used.
&I.LINKS DS    0F                     | Start of links.
&I.DSDIR DS    F                      | Descriptor for directory.
&I.FRGRD DS    F                      | First GRD in chain of GRDs.
&I.SPGSS DS    F                      | Spare GSSs.
&I.GRDUA DS    F                      | Unassigned storage group.
&I.GRDLS DS    F                      | Low RBA system storage grp.<64K
&I.GRDSY DS    F                      | System storage group. >64K
&I.GRDDF DS    F                      | Default user storage group.
&I.TDGRD DS    F                      | Group desc ITD token.
&I.TDGSS DS    F                      | Group storage segment token.
&I.TDITD DS    F                      | Item type ITD token.
&I.TDITDX DS   F                      | Extended item type ITD token.
&I.TDDSC DS    F                      | Descriptor ITD token.
&I.TDLLD DS    F                      | List descriptor ITD token.
&I.TDHTD DS    F                      | Hashtable descriptor ITD token.
&I.TDBTD DS    F                      | Binary tree desc ITD token.
&I.TDDIR DS    F                      | Directory entry ITD token.
         DS    10F                    | Not used.
&I.FSIST DS    F                      | Short string used for Freespace
         DS    10F                    | Not used.
&I.#LNKS EQU   (*-&I.LINKS)/4         | Number of links.
         SPACE 1                      |
&I.ITMSZ EQU   *-&NAME                | Length of this item.
         MEND                         |
         MACRO
&TAG     IM_ITD &DSECT=YES,&ID=ITD
*---------------------------------------------------------------------*
*
*  Macro:      IM_ITD
*
*  Title:      Item Type Descriptor
*
*  Purpose:    This macro maps a simple item type descriptor.
*
*  Special
*  Notes:      Associated with Item Manager.
*
*  Change
*  History:    02/27/89 MGG - New
*
*---------------------------------------------------------------------*
         SPACE 1
         LCLC  &I,&NAME
&I       SETC  '&ID'
&X       SETC  '&ID.X'
&NAME    SETC  '&ID'
         AIF   ('&TAG' EQ '').NOTAG
&NAME    SETC  '&TAG'
.NOTAG   ANOP
         AIF ('&DSECT' EQ 'NO').NODSECT
&NAME    DSECT
         AGO .TG1
.NODSECT ANOP
&NAME    DS    0F
.TG1     ANOP
&X       EQU   *
&I.ITYPE DS    H                      | Item type (of "item type"!).
&I.CLASS DS    H                      | Item class.
&I.NUMIT DS    F                      | Number of items of this type.
&I.LINKS DS    0F                     | Start of links.
&X.LINKS DS    0F                     | Start of links.
&I.DESC  DS    F                      | Description.
&I.GRD   DS    F                      | Group Storage Segment token.
&I.#LNKS EQU   (*-&I.LINKS)/4         | Number of links.
&X.#LNKS EQU   (*-&I.LINKS)/4         | Number of links.
&I.F1    DS    BL1                    | Flags.
&I.F1EXT EQU   B'10000000'            |   Extended form ITD.
&I.F1LNI EQU   B'01000000'            |   Item size is in item.
&I.F1NLI EQU   B'00100000'            |   Number of links is in item.
&I.F1LOI EQU   B'00010000'            |   Links offset is in item.
&I.F1DFL EQU   B'00001000'            |   Item has token of description
*                                     |   in first link.  Otherwise,
*                                     |   ITDDESC has the token, if
*                                     |   any.
&I.XFORM EQU   *                      | Where extended for starts to
*                                     | differ.
&I.ILN   DS    X                      | Item length.
&I.ILO   DS    X                      | First link offset.
&I.INL   DS    X                      | Number of links.
         SPACE 1                      |
&I.ITMSZ EQU   *-&NAME                | Length of this item.
         SPACE
         ORG   &I.XFORM               | Org to where forms differ.
&X.ILNSZ DS    X ---------            | Item length size.
&X.INLSZ DS    X ------  |            | Number of links size.
&X.ILOSZ DS    X ---  |  |            | Link offset size.
&X.ILN   DS    0F  |  |  |            | Item length.
&X.ILNOF DS    F <--------            | Item length size offset.
&X.ILO   DS    0F  |  |               | First link offset.
&X.ILOOF DS    F <-----               | Link offset size offset.
&X.INL   DS    0F  |                  | Number of links.
&X.INLOF DS    F <--                  | Number of links size offset.
         SPACE 1                      |
&X.ITMSZ EQU   *-&NAME                | Length of this item.
         MEND                         |
         MACRO
&TAG     IM_LLD &DSECT=YES,&ID=LLD
*---------------------------------------------------------------------*
*
*  Macro:      IM_LLD
*
*  Title:      Linked List Descriptor
*
*  Purpose:    This macro maps a linked list descriptor.
*
*  Special
*  Notes:      Associated with Item Manager.
*
*  Change
*  History:    02/27/89 MGG - New
*
*---------------------------------------------------------------------*
         SPACE 1
         LCLC  &I,&NAME
&I       SETC  '&ID'
&NAME    SETC  '&ID'
         AIF   ('&TAG' EQ '').NOTAG
&NAME    SETC  '&TAG'
.NOTAG   ANOP
         AIF ('&DSECT' EQ 'NO').NODSECT
&NAME    DSECT
         AGO .TG1
.NODSECT ANOP
&NAME    DS    0F
.TG1     ANOP                         |
&I.ITYPE DS    H                      | Item type.
&I.OP    DS    BL1                    | Option:
&I.OPHID EQU   B'10000000'            |   Heads in descriptor.
&I.OPDUP EQU   B'01000000'            |   Duplicate keys allowed.
&I.OPORD EQU   B'00000111'            |   List order:
&I.OPOFS EQU   0                      |     First.
&I.OPOFN EQU   1                      |     Final.
&I.OPONX EQU   2                      |     Next.
&I.OPOPR EQU   3                      |     Prior.
&I.OPOSA EQU   4                      |     Sorted: Ascending.
&I.OPOSD EQU   5                      |     Sorted: Descending.
&I.F1    DS    BL1                    | Flag:
&I.F1KSI EQU   B'10000000'            |   Key size in item.
&I.F1KED EQU   B'01000000'            |   Keyed. (otherwise entry)
*                                     | Link number used for:
&I.NXLK# DS    F                      |   Next     link.  Links
&I.PRLK# DS    F                      |   Prior link.       "
&I.OWLK# DS    F                      |   Owner    link.    "
&I.FRLK# DS    F                      |   First    link.  Heads
&I.FNLK# DS    F                      |   Final    link.    "
&I.KSZ   DS    F                      | Size of key if fixed.
&I.KSZOF EQU   &I.KSZ                 | Offset of size in item.
&I.KOF   DS    F                      | Key offset in item.
&I.LINKS DS    0F                     | Start of links.
&I.DESC  DS    F                    1 | Token of list description.
&I.MTITD DS    F                    2 | Optional token for member ITD.
&I.HDITD DS    0F                   3 | Token of heads ITD.
&I.FRLST DS    F                    3 | Token of first item in list.
&I.FNLST DS    F                    4 | Token of final item in list.
&I.SPITD DS    F                    5 | Token of seperate item ITD.
&I.#LNKS EQU   (*-&I.LINKS)/4         | Number of links.
         SPACE 1                      |
&I.ITMSZ EQU   *-&NAME                | Length of this item.  May be
*                                     |  4 less if backlink does not
*                                     |  exist.
         MEND                         |
