         MACRO M$ERRST - OUTPUT AN ERROR/STATUS MESSAGE
&NAME    M$ERRST &MSG1,&MSG2
         AIF   ('&MSG1' EQ '(1)' OR '&MSG1' EQ '(R1)').MSGDS
         AIF   ('&MSG1'(1,1) EQ '(').RMSG1
         AIF   ('&MSG1' EQ 'MSGTEXT1' AND '&MSG2' EQ '').NOR1
&NAME    LA    R1,&MSG1
         AGO   .MSG2
.NOR1    ANOP
&NAME    BAS   R14,MESSTXT1
         MEXIT
.RMSG1   ANOP
&NAME    LR    R1,&MSG1(1)
         AGO   .MSG2
.MSGDS   ANOP
         AIF   ('&MSG2' NE '').SECOND
&NAME    BAS   R14,MESSAGE0
         MEXIT
.SECOND  ANOP
&NAME    DS    0H
.MSG2    ANOP
         AIF   ('&MSG2' EQ '').NOMSG2 NO SECONDARY MESSAGE
         AIF   ('&MSG2' EQ '(0)' OR '&MSG2' EQ '(R0)').CALL
         AIF   ('&MSG2'(1,1) EQ '(').RMSG2
         LA    R0,&MSG2
         AGO   .CALL
.RMSG2   ANOP
         LR    R0,&MSG2(1)
.CALL    ANOP
         BAS   R14,MESSAGE
         AGO   .END
.NOMSG2  ANOP
         BAS   R14,MESSAGE0
.END     MEND
