         MACRO M$EXIT  - TERMINATE A CSECT
&NAME    M$EXIT &LV=
         AIF   ('&LV' EQ '').A0
&NAME    LR    R2,R13                         ADDR OF THIS SAVE AREA
         L     R13,4(,R13)
         AGO   .A1
.A0      ANOP
&NAME    L     R13,4(,R13)
.A1      STM   R15,R1,16(R13)                 RETURN REGS 15, 0, 1
         AIF   ('&LV' EQ '').A2 NOT DYNAMIC STORAGE
         FREEMAIN R,LV=&LV,A=(R2)
.A2      ANOP
         RETURN (14,12),T
         MEND
