         MACRO M$MSG   -   OUTPUT A STATUS OR ERROR MESSAGE WITH MSGID
&NAME    M$MSG &NUM
         AIF   ('&NUM' EQ '(1)' OR '&NUM' EQ '(R1)').CALL
&NAME    LA    R1,&NUM
         BAS   R14,$TMSGRT
         MEXIT
.CALL    ANOP
&NAME    BAS   R14,$TMSGRT
         MEND
