         MACRO M$PUTLIN -  OUTPUT A DATA LINE
&NAME   M$PUTLIN &LINE,&ATTN=
         AIF   ('&LINE' EQ '(1)' OR '&LINE' EQ '(R1)').CALL
         AIF   ('&LINE'(1,1) EQ '(').R
&NAME    LA    R1,&LINE                      ADDRESS OF DATA LINE
         BAS   R14,M$PUTLIN                  INVOKE PUTLINE INTERFACE
         AGO   .ATTN
.R       ANOP
&NAME    LR    R1,&LINE(1)                   ADDRESS OF DATA LINE
         BAS   R14,M$PUTLIN                  INVOKE PUTLINE INTERFACE
         AGO   .ATTN
.CALL    ANOP
&NAME    BAS   R14,M$PUTLIN                  INVOKE PUTLINE INTERFACE
.ATTN    ANOP
         AIF   ('&ATTN' EQ '').NOATTN
         B     &ATTN                         EXIT IF ATTENTION OCCURRED
         AGO   .END
.NOATTN  NOP   0                             IGNORE ATTENTIONS
.END     MEND
