         MACRO M$PUTGT -  OUTPUT A DATA LINE AND GET RESPONSE
&NAME    M$PUTGT  &LINE,&ATTN=
         AIF   ('&LINE' EQ '(1)' OR '&LINE' EQ '(R1)').CALL
         AIF   ('&LINE'(1,1) EQ '(').R
&NAME    LA    R1,&LINE
         BAS   R14,M$PUTGT
         AGO   .ATTN
.R       ANOP
&NAME    LR    R1,&LINE(1)
         BAS   R14,M$PUTGT
         AGO   .ATTN
.CALL    ANOP
&NAME    BAS   R14,M$PUTGT
.ATTN    ANOP
         AIF   ('&ATTN' EQ '').NOATTN
         B     &ATTN                         EXIT IF ATTENTION OCCURRED
         AGO   .END
.NOATTN  NOP   0(,R0)                        IGNORE ATTENTIONS
.END     MEND
