         MACRO M$SORT  - SORT A TABLE IN MEMORY
&NAME    M$SORT &FIELDS=(1,1,CH,A),&FIRST=,&LAST=,&A=,&FORMAT=,        *
               &LENGTH=
.*       AUTHOR - PETER HAVERCAN, IBM HURSLEY LAB
         GBLC  &##EQU
         LCLA  &X,&Y,&Z,&LEN
         LCLC  &HI,&LO,&R0,&R1,&R14,&R15
&X       SETA  N'&FIELDS
         AIF   (&X NE 3 AND &X NE 4).ERR1
         AIF   (&X EQ 4 AND '&FIELDS(3)' NE 'CH').ERR2
&HI      SETC  'H'
&LO      SETC  'L'
         AIF   ('&FIELDS(&X)' NE 'D').TESTA
&HI      SETC  'L'
&LO      SETC  'H'
         AGO   .SETREGS
.TESTA   AIF   ('&FIELDS(&X)' EQ 'A').SETREGS
         MNOTE *,'*** SORT TYPE NOT A OR D - A ASSUMED'
.SETREGS ANOP
&R0      SETC  '&##EQU.0'
&R1      SETC  '&##EQU.1'
&R14     SETC  '&##EQU.14'
&R15     SETC  '&##EQU.15'
         AIF   ('&LENGTH' EQ '').NOLNGTH
&LEN     SETA  &LENGTH
         AGO   .LENSET
.NOLNGTH ANOP
&LEN     SETA  L'&FIRST
.LENSET  ANOP
&X       SETA  &FIELDS(1)-1            OFFSET WITHIN RECORD
&Y       SETA  &FIELDS(2)              LENGTH OF SORT-KEY
&Z       SETA  &X+&LEN                 OFFSET WITHIN NEXT RECORD
         AIF   ('&FIRST&LAST' EQ '').ATYPE
&NAME    LA    &R15,&FIRST             ADDRESS FIRST ENTRY
         LA    &R0,&LENGTH             LOAD WIDTH OF TABLE
         LA    &R1,&LAST               ADDRESS LAST ENTRY
         AGO   .STEPBCK
.ATYPE   AIF   ('&A' EQ '').ERR3
&NAME    LM    &R15,&R1,&A             FIRST ENTRY,WIDTH,LAST ENTRY
.STEPBCK ANOP
         SR    &R1,&R0                 R1 POINTS AT PENULTIMATE
         CLC   &X.(&Y,&R15),&Z.(&R1)   COMPARE FIRST & LAST ENTRIES
         B&LO  *+22                    RECDS IN SEQUENCE
         XC    0(&LEN,&R15),&LEN.(&R1) SWITCH FIRST AND
         XC    &LEN.(&LEN,&R1),0(&R15) LAST ENTRIES INTO
         XC    0(&LEN,&R15),&LEN.(&R1) CORRECT SEQUENCE
         LA    &R14,&LEN.(&R15)        ADDRESS NEXT RECORD
         CLC   &X.(&Y,&R14),&X.(&R15)  COMPARE SORT KEYS
         BN&LO *+26                    IN SEQUENCE FROM FRONT
         XC    0(&LEN,&R14),0(&R15)    SWITCH FIELDS
         XC    0(&LEN,&R15),0(&R14)    WHICH ARE OUT
         XC    0(&LEN,&R14),0(&R15)    OF SEQUENCE
         B     *+32                    GO TO LOOP CONTROL
         CLC   &X.(&Y,&R14),&Z.(&R1)   COMPARE WITH FINAL RECORD
         BN&HI *+22                    IN SEQUENCE FROM REAR
         XC    0(&LEN,&R14),&LEN.(&R1) SWITCH FIELDS
         XC    &LEN.(&LEN,&R1),0(&R14) WHICH ARE OUT
         XC    0(&LEN,&R14),&LEN.(&R1) OF SEQUENCE
         BXLE  &R14,&R0,*-60           INCREMENT & LOOP BACK
         SR    &R1,&R0                 DECREMENT END POINTER
         BXLE  &R15,&R0,*-98           ADVANCE FRONT POINTER
         MEXIT
.ERR1    MNOTE 8,'INVALID NO. OF ENTRIES IN FIELDS PARAMETER'
         MEXIT
.ERR2    MNOTE 4,'FORMAT TYPE IS NOT SUPPORTED'
         MEXIT
.ERR3    MNOTE 8,'NEITHER A FIRST NOR LAST ARE SPECIFIED'
         MEND
