./       ADD   NAME=SLSS
)ATTR
 $ TYPE(OUTPUT) INTENS(LOW) CAPS(ON)
 @ TYPE(OUTPUT) INTENS(LOW) CAPS(OFF)
 # TYPE(OUTPUT) INTENS(HIGH)
 _ TYPE(INPUT)  INTENS(HIGH) CAPS(ON)
)BODY
%------------ SLSS (Edit) ------------------------------------------------------
%Option ===>_OPT                                           +  %Scroll ===>_AMT +
%&ADDMSG                                                 +Library:%&SLSS+Seq.:#Z
+Options:(%Manual ID+to locate a specific manual or%'A'+to add new manuals)
+
%S+to select manual for processing or
%D+to delete manual
+S Manual-ID   Ver U O Location -------------------- Title ---------------------
+===============================================================================
)MODEL
_Z$Z        +-@Z +@Z@Z@Z       @Z
)INIT
 .CURSOR = OPT
 .HELP   = TSLSS
 .ZVARS  = '(LIBSRTKY SELECT SLSID SLSSVER UPD ORDSTS BOOK NAME1)'
 &OPT    = ' '
 &SELECT = ' '
 &AMT    = HALF
)END
./       ADD   NAME=SLSS@CAU
)ATTR
 @ TYPE(TEXT)   INTENS(HIGH) COLOR(YELLOW) HILITE(REVERSE)
 # TYPE(OUTPUT) INTENS(HIGH) COLOR(YELLOW)
)BODY
%------------ SLSS (Caution Message) -------------------------------------------
+
+
+
+
+                *---------------------------------------------*
+                |               C A U T I O N                 |
+                |---------------------------------------------|
+                |@  Please read the following:               +|
+                *---------------------------------------------*
+
+                #SLSSCAU1
+                #SLSSCAU2
+                #SLSSCAU3
+                #SLSSCAU4
+                #SLSSCAU5
+
+
+
+
+
+
+#SLSSCAUX                                                                    _A
)END
./       ADD   NAME=SLSS@ERR
)ATTR
 @ TYPE(TEXT)   INTENS(HIGH) COLOR(RED) HILITE(REVERSE) CAPS(OFF)
 # TYPE(OUTPUT) INTENS(HIGH) COLOR(RED)                 CAPS(OFF)
)BODY
%------------ SLSS (Error Message) ---------------------------------------------
+
+
+
+
+                *---------------------------------------------*
+                |@               E  R  R  O  R               +|
+                |---------------------------------------------|
+                |   The following error has occured in SLSS   |
+                *---------------------------------------------*
+
+                #SLSSERR1
+                #SLSSERR2
+                #SLSSERR3
+                #SLSSERR4
+                #SLSSERR5
+
+
+
+&SLSSERRX                                                                    _A
)END
./       ADD   NAME=SLSS@KEY
)ATTR
 @ TYPE(TEXT)   INTENS(HIGH) COLOR(YELLOW) CAPS(OFF)
 # TYPE(OUTPUT) INTENS(HIGH) COLOR(YELLOW) CAPS(OFF)
)BODY
%------------ SLSS (Warning Message) -------------------------------------------
+
+
+                RESTART KEY ===>_RESLSID  +
+
+                *---------------------------------------------*
+                |              @W A R N I N G+                |
+                |---------------------------------------------|
+                |   Please read the following:                |
+                *---------------------------------------------*
+
+                #SLSSWRN1
+                #SLSSWRN2
+                #SLSSWRN3
+                #SLSSWRN4
+                #SLSSWRN5
+
+
+
+&SLSSWRNX                                                                    _A
)END
./       ADD   NAME=SLSS@PRC
)ATTR
 @ TYPE(TEXT)   INTENS(HIGH) COLOR(GREEN) HILITE(REVERSE)
 # TYPE(OUTPUT) INTENS(HIGH) COLOR(GREEN) CAPS(OFF)
)BODY
%------------ SLSS (Processing) ------------------------------------------------
+
+
+
+
+                *---------------------------------------------*
+                |@            P R O C E S S I N G            +|
+                *---------------------------------------------*
+
+                #SLSSPRC1
+                #SLSSPRC2
+                #SLSSPRC3
+                #SLSSPRC4
+                #SLSSPRC5
+
+
+
+#SLSSPRCX                                                                    _A
)END
./       ADD   NAME=SLSS@TOP
)ATTR
 " AREA(DYNAMIC) EXTEND(ON)
 ¬ TYPE(TEXT) INTENS(HIGH) COLOR(BLUE)
 % TYPE(TEXT) INTENS(HIGH) COLOR(BLUE) HILITE(REVERSE)
 @ TYPE(TEXT) INTENS(HIGH) COLOR(WHITE) HILITE(REVERSE)
 # TYPE(TEXT) INTENS(HIGH) COLOR(GREEN)
 ~ TYPE(TEXT) INTENS(HIGH) COLOR(RED)
 _ TYPE(INPUT) INTENS(NON) COLOR(BLUE)
)BODY
@                                                                              +
@ +                                                                          @ +
@ +            %SSSSSSSSSS+   %LL+             %SSSSSSSSSS+    %SSSSSSSSSS+  @ +
@ +          %SSSSSSSSSSSSS+ %LL+            %SSSSSSSSSSSSS+ %SSSSSSSSSSSSS+ @ +
@ +         %SS+       %SS+ %LL+            %SS+       %SS+ %SS+       %SS+  @ +
@ +        %SS+            %LL+            %SS+            %SS+              @ +
@ +       %SS+            %LL+            %SS+            %SS+               @ +
@ +        %SSSSSSSSS+   %LL+              %SSSSSSSSS+     %SSSSSSSSS+       @ +
@ +                %SS+ %LL+                       %SS+            %SS+      @ +
@ +               %SS+ %LL+                       %SS+            %SS+       @ +
@ +   %SS+       %SS+ %LL+            %SS+       %SS+ %SS+       %SS+        @ +
@ +  %SSSSSSSSSSSSS+ %LLLLLLLLLLLLL+ %SSSSSSSSSSSSS+ %SSSSSSSSSSSSS+         @ +
@ +   %SSSSSSSSSS+  %LLLLLLLLLLLLL+   %SSSSSSSSSSS+   %SSSSSSSSSS+           @ +
@ +                                                                          @ +
@ +                             ¬Version 4.0.0                               @ +
@ +                       ¬Written by: Dave Weilert                          @ +
@ +                                                                          @ +
@ +          +Press#ENTER+Key to continue,~END+key to terminate_A+           @ +
@ +"FILLER2                                                                 "@ +
@                                                                              +
)END
./       ADD   NAME=SLSS@WRN
)ATTR
 @ TYPE(TEXT)   INTENS(HIGH) COLOR(YELLOW) HILITE(REVERSE)
 # TYPE(OUTPUT) INTENS(HIGH) COLOR(YELLOW) CAPS(OFF)
)BODY
%------------ SLSS (Warning Message) -------------------------------------------
+
+
+
+
+                *---------------------------------------------*
+                |@              W A R N I N G                +|
+                |---------------------------------------------|
+                |   Please read the following:                |
+                *---------------------------------------------*
+
+                #SLSSWRN1
+                #SLSSWRN2
+                #SLSSWRN3
+                #SLSSWRN4
+                #SLSSWRN5
+
+
+
+&SLSSWRNX                                                                    _A
)END
./       ADD   NAME=SLSSADD
)ATTR
 _ TYPE(&ATYPE) INTENS(&AINTENS) CAPS(OFF)
 @ TYPE(&ATYPE) INTENS(&AINTENS) CAPS(ON)
)BODY
%------------ SLSS &PNLTYP -----------------------------------------------------
%&ADDMSG                                                         +Library:%&SLSS
+MANUAL INFORMATION:
+   Manual ID     %===>@SLSID    + Version:@Z +
+   Manual Title  %===>_NAME1                                             +
+                 %===>_NAME2                                             +
+                 %===>_NAME3                                             +
+   Keywords      %===>_KEYWORDS                                          +
+   Program No(s) %===>_Z       +  _Z       +  _Z       +  _Z       +
+LOCATION:
+   Book/Binder # %===>@BOOK    +  Modify/Create more locations %===>@Z+ (Y/N)
+ORDER STATUS:
+   Date ordered  %===>_DATEORD + (MM/DD/YY)
+   Date received %===>_DATERECV+ (MM/DD/YY, remove Date Ordered once received)
+
+UPDATE INFORMATION:
+ 1%===>_UPD0     +  2%===>_UPD1     +  3%===>_UPD2     +  4%===>_UPD3     +
+ 5%===>_UPD4     +  6%===>_UPD5     +  7%===>_UPD6     +  8%===>_UPD7     +
+ 9%===>_UPD8     + 10%===>_UPD9     + 11%===>_UPDA     + 12%===>_UPDB     +
+13%===>_UPDC     + 14%===>_UPDD     + 15%===>_UPDE     + 16%===>_UPDF     +
+AUDIT DATA:
+ Created by     : &CRETWHO +  Date: &CRETDAT +  Time: &CRETTIM +
+ Last update by : &LSTUWHO +  Date: &LSTUDAT +  Time: &LSTUTIM +
+Press%END KEY+to return to previous panel+
)INIT
 .ZVARS  = '(SLSSVER PGMID1 PGMID2 PGMID3 PGMID4 LOCS)'
 .CURSOR = SLSID
 &UPD = ' '
 &ATYPE = 'INPUT'
 &AINTENS = 'HIGH'
 &PNLTYP = '(Edit)'
 &A1 = '&SLSID         '
 &SLSID = TRUNC(&A1,9)
)PROC
 VER (&SLSID,NONBLANK)
 VER (&NAME1,NONBLANK)
 VER (&BOOK,NONBLANK)
 VER (&DATEORD,PICT,NN/NN/NN)
 VER (&DATERECV,PICT,NN/NN/NN)
 IF (&DATEORD ¬= ' ')
    VER(&DATERECV,LIST,' ')
 IF (&UPD0 ¬= ' ')
    &UPD = Y
 IF (&UPD1 ¬= ' ')
    &UPD = Y
 IF (&UPD2 ¬= ' ')
    &UPD = Y
 IF (&UPD3 ¬= ' ')
    &UPD = Y
 IF (&UPD4 ¬= ' ')
    &UPD = Y
 IF (&UPD5 ¬= ' ')
    &UPD = Y
 IF (&UPD6 ¬= ' ')
    &UPD = Y
 IF (&UPD7 ¬= ' ')
    &UPD = Y
 IF (&UPD8 ¬= ' ')
    &UPD = Y
 IF (&UPD9 ¬= ' ')
    &UPD = Y
 IF (&UPDA ¬= ' ')
    &UPD = Y
 IF (&UPDB ¬= ' ')
    &UPD = Y
 IF (&UPDC ¬= ' ')
    &UPD = Y
 IF (&UPDD ¬= ' ')
    &UPD = Y
 IF (&UPDE ¬= ' ')
    &UPD = Y
 IF (&UPDF ¬= ' ')
    &UPD = Y
)END
./       ADD   NAME=SLSSBROW
)ATTR
 $ TYPE(OUTPUT) INTENS(LOW) CAPS(ON)
 @ TYPE(OUTPUT) INTENS(LOW) CAPS(OFF)
 # TYPE(OUTPUT) INTENS(HIGH)
 _ TYPE(INPUT)  INTENS(HIGH) CAPS(ON)
)BODY
%------------ SLSS (Browse) ----------------------------------------------------
%Option ===>_OPT                                         +    %Scroll ===>_AMT +
%&ADDMSG                                                 +Library:%&SLSS+Seq.:#Z
+Enter Manual-ID in OPTION field or select manual below.
+S Manual-ID  Ver  U O Location ------------------- Title ----------------------
+===============================================================================
)MODEL
_Z$Z        +-@Z +@Z@Z@Z       @Z                                              +
                               @Z                                              +
                               @Z                                              +
)INIT
 .CURSOR = OPT
 .HELP   = TSLSS
 .ZVARS  = '(LIBSRTKY SELECT SLSID SLSSVER UPD ORDSTS BOOK NAME1  +
             NAME2 NAME3)'
 &OPT    = ' '
 &SELECT = ' '
 &AMT    = HALF
)END
./       ADD   NAME=SLSSBRWS
)ATTR
 _ TYPE(INPUT) INTENS(HIGH) CAPS(ON)
)BODY
%------------ SLSS (Authorize BROWSE) ------------------------------------------
+
+  Below enter the user ID's that will be allowed to 'BROWSE' the library.  If
+  all users are allowed to browse the library enter 'ALLUSERS' or '/' in field
+  one.  Generic ID's may be entered as 'A0/'.  This allows all users that begin
+  with value 'A0'.
+
+USER ID's:
+  1  %===>_BID1    + 2  %===>_BID2    + 3  %===>_BID3    + 4  %===>_BID4    +
+  5  %===>_BID5    + 6  %===>_BID6    + 7  %===>_BID7    + 8  %===>_BID8    +
+  9  %===>_BID9    + 10 %===>_BID10   + 11 %===>_BID11   + 12 %===>_BID12   +
+  13 %===>_BID13   + 14 %===>_BID14   + 15 %===>_BID15   + 16 %===>_BID16   +
+  17 %===>_BID17   + 18 %===>_BID18   + 19 %===>_BID19   + 20 %===>_BID20   +
+  21 %===>_BID21   + 22 %===>_BID22   + 23 %===>_BID23   + 24 %===>_BID24   +
+  25 %===>_BID25   + 26 %===>_BID26   + 27 %===>_BID27   + 28 %===>_BID28   +
+  29 %===>_BID29   + 30 %===>_BID30   + 31 %===>_BID31   + 32 %===>_BID32   +
+  33 %===>_BID33   + 34 %===>_BID34   + 35 %===>_BID35   + 36 %===>_BID36   +
+  37 %===>_BID37   + 38 %===>_BID38   + 39 %===>_BID39   + 40 %===>_BID40   +
+  41 %===>_BID41   + 42 %===>_BID42   + 43 %===>_BID43   + 44 %===>_BID44   +
+  45 %===>_BID45   + 46 %===>_BID46   + 47 %===>_BID47   + 48 %===>_BID48   +
+  49 %===>_BID49   + 50 %===>_BID50   + 51 %===>_BID51   + 52 %===>_BID52   +
+  53 %===>_BID53   + 54 %===>_BID54   + 55 %===>_BID55   + 56 %===>_BID56   +
+  57 %===>_BID57   + 58 %===>_BID58   + 59 %===>_BID59   + 60 %===>_BID60   +
+Press%END KEY+to terminate process+
)PROC
 VER (&BID1,NB)
)END
./       ADD   NAME=SLSSBRW2
)ATTR
 $ TYPE(&ATYPE) INTENS(&AINTENS) CAPS(ON)
 _ TYPE(&ATYPE) INTENS(&AINTENS) CAPS(OFF)
 @ TYPE(INPUT)  INTENS(NON)
 # TYPE(OUTPUT) INTENS(HIGH)
)BODY
%------------ SLSS &PNLTYP -----------------------------------------------------
%&ADDMSG                                                       @A+Library:%&SLSS
+MANUAL INFORMATION:
+   Manual ID         :$SLSID    + Version:$Z +
+   Manual Title      :_NAME1                                             +
+                     :_NAME2                                             +
+                     :_NAME3                                             +
+   Kewords           :_KEYWORDS                                          +
+   Program No(s)     :_PGMID1  +  _PGMID2  +  _PGMID3  +  _PGMID4  +
+LOCATION:
+   Book/Binder       :_BOOK    +
+ORDER STATUS:
+   Date ordered      :_DATEORD + (MM/DD/YY)
+   Date received     :_DATERECV+ (MM/DD/YY)
+
+UPDATE INFORMATION:
+ 1    :_UPD0     +  2    :_UPD1     +  3    :_UPD2     +  4    :_UPD3     +
+ 5    :_UPD4     +  6    :_UPD5     +  7    :_UPD6     +  8    :_UPD7     +
+ 9    :_UPD8     + 10    :_UPD9     + 11    :_UPDA     + 12    :_UPDB     +
+13    :_UPDC     + 14    :_UPDD     + 15    :_UPDE     + 16    :_UPDF     +
+AUDIT DATA:
+ Created by     : &CRETWHO +  Date: &CRETDAT +  Time: &CRETTIM +
+ Last update by : &LSTUWHO +  Date: &LSTUDAT +  Time: &LSTUTIM +
+Press%END KEY+to return to previous panel+
)INIT
 .ZVARS  = '(SLSSVER)'
 .CURSOR = A
 &ATYPE = 'OUTPUT'
 &AINTENS = 'LOW'
 &PNLTYP = '(Browse)'
 &A1 = '&SLSID         '
 &SLSID = TRUNC(&A1,9)
)END
./       ADD   NAME=SLSSCAN1
)ATTR
 _ TYPE(INPUT) INTENS(HIGH) CAPS(ON)
)BODY
%------------ SLSS (Scan) ------------------------------------------------------
%COMMAND%===>_ZCMD                                                   +
+
+    SCAN LIBRARY:% &SLSS+
+
+    Enter value to be scanned for.  The value may be a complete word
+    or a partial value.  A partial value search is required to end with
+    an%'*'+(example word JES*).  The partial scan will search for a
+    value that begins with the characters in front of the '*' and dis-
+    play the manual number list if found.
+
+
+    ENTER SCAN VALUE%===>_GENERIC             +   (?? for Keyword listing)
+
+
+
+              %&SLSSMSG
+
+
+
+
+
)INIT
 .CURSOR = GENERIC
)PROC
 VER (&GENERIC,NB)
)END
./       ADD   NAME=SLSSCAN2
)ATTR
 @ TYPE(OUTPUT) INTENS(LOW) CAPS(OFF)
)BODY
%------------ SLSS (Scan) ------------------------------------------------------
%COMMAND ===>_ZCMD                                           +%SCROLL ===>_AMT +
+
+Scan word:%&GENERIC                 +  Number of hits:%&NUM
+
+ Manual-ID   Location                 Manual Name
+==============================================================================-
)MODEL
+@Z          @Z       @Z
                      @Z
                      @Z
)INIT
 .ZVARS = '(SCANNUM SCANBOOK SCANNAM1 SCANNAM2 SCANNAM3)'
 &AMT = 'HALF'
)END
./       ADD   NAME=SLSSCAN3
)ATTR
 @ TYPE(OUTPUT) INTENS(LOW)
)BODY
%------------ SLSS (Scan) ------------------------------------------------------
%COMMAND ===>_ZCMD
+
+Press%ENTER+to list manual titles or%END+key to terminate scan.
+
+Search word: @GWORD                   +  Number of hits: @NUM
+
+------------------------------------ Manuals ----------------------------------
+
+ @BK1      +  @BK2      +  @BK3      +  @BK4      +  @BK5      +  @BK6      +
+ @BK7      +  @BK8      +  @BK9      +  @BK10     +  @BK11     +  @BK12     +
+ @BK13     +  @BK14     +  @BK15     +  @BK16     +  @BK17     +  @BK18     +
+ @BK19     +  @BK20     +  @BK21     +  @BK22     +  @BK23     +  @BK24     +
+ @BK25     +  @BK26     +  @BK27     +  @BK28     +  @BK29     +  @BK30     +
+ @BK31     +  @BK32     +  @BK33     +  @BK34     +  @BK35     +  @BK36     +
+ @BK37     +  @BK38     +  @BK39     +  @BK40     +  @BK41     +  @BK42     +
+ @BK43     +  @BK44     +  @BK45     +  @BK46     +  @BK47     +  @BK48     +
+ @BK49     +  @BK50     +  @BK51     +  @BK52     +  @BK53     +  @BK54     +
+ @BK55     +  @BK56     +  @BK57     +  @BK58     +  @BK59     +  @BK60     +
+ @BK61     +  @BK62     +  @BK63     +  @BK64     +  @BK65     +  @BK66     +
+ @BK67     +  @BK68     +  @BK69     +  @BK70     +  @BK71     +  @BK72     +
+ @BK73     +  @BK74     +  @BK75     +  @BK76     +  @BK77     +  @BK78     +

                   %&SCANMSG
)END
./       ADD   NAME=SLSSCAN4
%------------ SLSS (Scan) ------------------------------------------------------
%COMMAND%===>_ZCMD                                                   +
+
+    ENTER RESPONSE%===>_Z+
+
+    Y - Continue scanning with keyword: %&GENERIC
+    N - Return to entry panel
+
+
+
+
+
+
+
+
)INIT
 .ZVARS = '(SLSSREP)'
 .CURSOR = SLSSREP
)PROC
 VER (&SLSSREP,NB)
 VER (&SLSSREP,LIST,Y,N)
)END
./       ADD   NAME=SLSSCAN5
)ATTR
 @ TYPE(OUTPUT) INTENS(LOW)
)BODY
%------------ SLSS (Keyword Listing) -------------------------------------------
%COMMAND ===>_ZCMD                                           +%SCROLL ===>_AMT +
+
+Table: &SCANTABL
+
+ Keyword     # of Hits                Manuals
+==============================================================================-
)MODEL
+@Z            @Z       @Z
)INIT
 .ZVARS = '(GWORD NUM BKIDS)'
 &AMT = 'HALF'
)END
./       ADD   NAME=SLSSDELS
%------------ SLSS (Delete Library Status) -------------------------------------
+
+
+ The following is the status of the requested library delete:
+
+ Library name: %&SLSS+
+
+     Library file       : %&LIB1RC
+     Enqueue file       : %&LIB2RC
+     Temp control file  : %&LIB3RC
+     Master control file: %&LIB4RC
+     Keyword Scan file  : %&LIB5RC
+     Add. location file : %&LIB6RC
+
+
+
+
+
+
+
+
+
+
+Press%Enter+to continue process+                                             _A
)END
./       ADD   NAME=SLSSDELT
%------------ SLSS (Delete Library) --------------------------------------------
+
+
+
+
+ Deleting library: %&SLSS+
+
+ This selected option will delete all table entries for the selected library.
+ The library entry will be deleted from the control file and the enque file
+ will be deleted also.
+
+                Press%ENTER KEY+to continue creation process
+
+                Press%END KEY+to terminate process+
+
+
+
+
+
+
+
+
+_A
)END
./       ADD   NAME=SLSSLOCS
)ATTR
 # TYPE(OUTPUT) INTENS(HIGH)
)BODY
%------------ SLSS (Additional locations) --------------------------------------
+
+  Enter/modify locations for manual ID:  #SLSID     +
+
+Locations:
+  1  %===>_LOC1    + 2  %===>_LOC2    + 3  %===>_LOC3    + 4  %===>_LOC4    +
+  5  %===>_LOC5    + 6  %===>_LOC6    + 7  %===>_LOC7    + 8  %===>_LOC8    +
+  9  %===>_LOC9    + 10 %===>_LOC10   + 11 %===>_LOC11   + 12 %===>_LOC12   +
+  13 %===>_LOC13   + 14 %===>_LOC14   + 15 %===>_LOC15   + 16 %===>_LOC16   +
+  17 %===>_LOC17   + 18 %===>_LOC18   + 19 %===>_LOC19   + 20 %===>_LOC20   +
+  21 %===>_LOC21   + 22 %===>_LOC22   + 23 %===>_LOC23   + 24 %===>_LOC24   +
+  25 %===>_LOC25   + 26 %===>_LOC26   + 27 %===>_LOC27   + 28 %===>_LOC28   +
+  29 %===>_LOC29   + 30 %===>_LOC30   + 31 %===>_LOC31   + 32 %===>_LOC32   +
+  33 %===>_LOC33   + 34 %===>_LOC34   + 35 %===>_LOC35   + 36 %===>_LOC36   +
+  37 %===>_LOC37   + 38 %===>_LOC38   + 39 %===>_LOC39   + 40 %===>_LOC40   +
+  41 %===>_LOC41   + 42 %===>_LOC42   + 43 %===>_LOC43   + 44 %===>_LOC44   +
+  45 %===>_LOC45   + 46 %===>_LOC46   + 47 %===>_LOC47   + 48 %===>_LOC48   +
+  49 %===>_LOC49   + 50 %===>_LOC50   + 51 %===>_LOC51   + 52 %===>_LOC52   +
+  53 %===>_LOC53   + 54 %===>_LOC54   + 55 %===>_LOC55   + 56 %===>_LOC56   +
+  57 %===>_LOC57   + 58 %===>_LOC58   + 59 %===>_LOC59   + 60 %===>_LOC60   +
+
+Press%END KEY+to terminate process+
)END
./       ADD   NAME=SLSSMODL
)ATTR
 _ TYPE(INPUT) INTENS(HIGH) CAPS(OFF)
)BODY
%------------ SLSS (Modify Library Information) --------------------------------
+
+
+                          Modify library: %&SLSS+
+
+ Enter the following information:
+
+ Library number    %===>_LIBNUMBR+  (Customer/User library #)
+
+ Library name      %===>_LIBNAME                                    +
+
+ Library owner name%===>_LIBOWNAM                                   +
+ Library owner ID  %===>_LIBOWNER+
+
+ Location line 1   %===>_LIBLOC1                                    +
+          line 2   %===>_LIBLOC2                                    +
+          line 3   %===>_LIBLOC3                                    +
+          line 4   %===>_LIBLOC4                                    +
+          line 5   %===>_LIBLOC5                                    +
+
+
+
+Press%END KEY+to terminate process+
)INIT
 &LIBN     = &SLSS
 &LIBMDATE = '        '
 &LIBSTABL = 'N'
 &LIBSDATE = '        '
)PROC
 VER (&LIBNUMBR,NB)
 VER (&LIBNAME,NB)
 VER (&LIBOWNAM,NB)
 VER (&LIBOWNER,NB)
 VER (&LIBLOC1,NB)
)END
./       ADD   NAME=SLSSMSTR
)ATTR
 @ TYPE(OUTPUT) INTENS(LOW)
 ¬ TYPE(TEXT)   INTENS(LOW) SKIP(ON)
)BODY
%------------ SLSS (Library Selection) -----------------------------------------
%COMMAND ===>_ZCMD                                           +%SCROLL ===>_AMT +
+
+Enter%'S'+in front of library to select for processing.
+
+    ---------Library--------   Creation   Last Mod. Sort
+ S  Name  Number      Owner      Date       Date    Seq.
+===============================================================================
)MODEL
 _Z @Z    @Z        @Z         @Z         @Z          @Z
)INIT
 .ZVARS = '(SL LIBN LIBNUMBR LIBOWNER LIBCDATE LIBMDATE LIBSRTKY)'
 .CURSOR = SL
 &ZCMD = ' '
 &AMT  = 'HALF'
)END
./       ADD   NAME=SLSSNEWT
)ATTR
 @ TYPE(INPUT) INTENS(HIGH) CAPS(ON)
 _ TYPE(INPUT) INTENS(HIGH) CAPS(OFF)
)BODY
%------------ SLSS (Create Library &SLSS ) -------------------------------------
+
+ Enter the following library information:
+
+ Number    %===>_LIBNUMBR+  (Customer/User library #)
+ Name      %===>_LIBNAME                                    +
+ Owner name%===>_LIBOWNAM                                   +
+ Owner ID  %===>_LIBOWNER+
+
+ Sort key  %===>@Z+  1+- Sort using first character of manual number.
+                     2+- Sort using second character of manual number.
+                     3+- Sort using third character of manual number.
+                     4+- Sort using fourth character of manual number.
+                     L+- Sort using LOCATION of manual.
+                     T+- Sort using TITLE of manual.
+ Location:
+  line 1   %===>_LIBLOC1                                    +
+  line 2   %===>_LIBLOC2                                    +
+  line 3   %===>_LIBLOC3                                    +
+  line 4   %===>_LIBLOC4                                    +
+  line 5   %===>_LIBLOC5                                    +
+
+Press%END KEY+to terminate process+
)INIT
 .ZVARS = 'LIBSRTKY'
 &LIBN     = &SLSS
 &LIBMDATE = '        '
 &LIBSTABL = 'N'
 &LIBSDATE = '        '
)PROC
 VER (&LIBNUMBR,NB)
 VER (&LIBNAME,NB)
 VER (&LIBOWNAM,NB)
 VER (&LIBOWNER,NB)
 VER (&LIBSRTKY,NB,LIST,1,2,3,4,L,T)
 VER (&LIBLOC1,NB)
)END
./       ADD   NAME=SLSSPRIM
)ATTR
 ¬ TYPE(TEXT) INTENS(LOW) SKIP(ON)
)BODY
%------------ System Library Subscription Service ------------------------------
+OPTION  %===>_Z                                                 +
+Library %===>_Z   +  (Blank for library list or enter name of library.  To
+                      create new library select option '2' and enter new
+                      library name)
+
+  %1+- BROWSE    - Browse or inquire library               +USERID   - &ZUSER
+  %2+- EDIT      - Create or change library                +TIME     - &ZTIME
+  %3+- UTILITY   - Utility functions
+  %S+- SCAN      - Scan library with keyword
+
+
+
+
+
+
+
+
+  %X+- EXIT      - Terminate SLSS
+
+
+                              SLSS &SLSSLVL
+
+Enter%END+key to terminate SLSS+
)INIT
  .HELP = SLSST000
  .ZVARS = '(SEL SLSS)'
  .CURSOR = SEL
  &SLSSLVL = 'VERSION 4.0.0'  /* Version number                    */
)PROC
  VER (&SEL,NB,LIST,'1','2','3','S','X','@','?')
)END
./       ADD   NAME=SLSSPRNT
%------------ SLSS (Print) ----------------------------------------------------
%COMMAND%===>_ZCMD
%Library    :%&SLSS+
%
+REPORT TYPE %===>_Z+  (%1+ Sequential list,%2+-Order status)
%
%
+FORM OPTIONS:
+  LINES/INCH       %===>_Z +    (6 or 8)    LEFT MARGIN   %===>_Z +(0 - 50)
+  PAGE LENGTH      %===>_Z  +   (8.5 or 11) LINE SPACING  %===>_Z+ (S or D)
%
+SYSOUT:
+  OUTPUT CLASS     %===>_Z+                 3800 "CHARS"  %===>_Z   +
+  FCB              %===>_Z   +              3800 "BURST"  %===>_Z+   (Y or N)
+  NUMBER OF COPIES %===>_Z  +   (1 - 999)
+
+JOB STATEMENT INFORMATION:
%  ===>_SLSSJCL1                                                             ¬
%  ===>_SLSSJCL2                                                             ¬
%  ===>_SLSSJCL3                                                             ¬
%  ===>_SLSSJCL4                                                             ¬
%
+Press%END+to terminate process+
)INIT
 .ZVARS = '(SLSSRPT  SLSSLPI  SLSSMARG SLSSPAG  SLSSLINE +
            SLSSOCLS SLSSCHAR SLSSFCB  SLSSBRST SLSSCOPY)'
 .CURSOR = SLSSRPT
)PROC
 VER (&SLSSRPT,NB,LIST,1,2,3,)
 VER (&SLSSLPI,NB,LIST,6,8,12)
 VER (&SLSSMARG,NB,RANGE,1,50)
 VER (&SLSSPAG,NB,LIST,'8.5','11')
 VER (&SLSSLINE,NB,LIST,'S','D')
 VER (&SLSSOCLS,NB)
 VER (&SLSSBRST,LIST,Y,N)
 VER (&SLSSCOPY,NB,RANGE,1,999)
 VER (&SLSSJCL1,NB)
 VER (&SLSSJCL2,NB)
 VER (&SLSSJCL3,NB)
 VER (&SLSSJCL4,NB)
)END
./       ADD   NAME=SLSSRCOV
%------------ SLSS (Error Recovery) --------------------------------------------
+
+
+
+
+ Recovery for library: %&SLSS+
+
+ This selected option will attempt to reset the selected library.  Any changes
+ that have been made to the library will be lost and the enqueue file will be
+ reset.  Ensure that recovery is required before continuing.
+
+                Press%ENTER KEY+to continue creation process
+
+                Press%END KEY+to terminate process+
+
+
+
+
+
+
+
+
+_A
)END
./       ADD   NAME=SLSSSORT
)ATTR
 @ TYPE(INPUT) INTENS(HIGH) PAD(_)
)BODY
%------------- SLSS (Sort Library) ---------------------------------------------
%COMMAND ===>_ZCMD                                              +
+
+ Enter the sort field to be used to sequence library%&SLSS.+
+
+     ENTER SORT FIELD %===>@Z+      (1, 2, 3, 4, L, T)
+
+    %1+- Sort using first character of manual number.
+    %2+- Sort using second character of manual number.
+    %3+- Sort using third character of manual number.
+    %4+- Sort using fourth character of manual number.
+    %L+- Sort using LOCATION of manual.
+    %T+- Sort using TITLE of manual.
+
+
+
+
+
+
+
+
+Press%END KEY+to return to previous panel+
)INIT
 .ZVARS  = '(LIBSRTKY)'
 .CURSOR = LIBSRTKY
 &ZCMD = ' '
)PROC
  VER (&LIBSRTKY,NB,LIST,1,2,3,4,L,T)
)END
./       ADD   NAME=SLSSUPDT
%------------ SLSS (Authorize EDIT) --------------------------------------------
+
+  Below enter the user ID's that will be allowed to 'EDIT' the library.  If
+  all users are allowed to edit the library enter 'ALLUSERS' or '/' in field
+  one.  Generic ID's may be entered as 'A0/' this would allow all users that
+  begin with 'A0' to EDIT the library.
+
+USER ID's:
+  1  %===>_UID1    + 2  %===>_UID2    + 3  %===>_UID3    + 4  %===>_UID4    +
+  5  %===>_UID5    + 6  %===>_UID6    + 7  %===>_UID7    + 8  %===>_UID8    +
+  9  %===>_UID9    + 10 %===>_UID10   + 11 %===>_UID11   + 12 %===>_UID12   +
+  13 %===>_UID13   + 14 %===>_UID14   + 15 %===>_UID15   + 16 %===>_UID16   +
+  17 %===>_UID17   + 18 %===>_UID18   + 19 %===>_UID19   + 20 %===>_UID20   +
+  21 %===>_UID21   + 22 %===>_UID22   + 23 %===>_UID23   + 24 %===>_UID24   +
+  25 %===>_UID25   + 26 %===>_UID26   + 27 %===>_UID27   + 28 %===>_UID28   +
+  29 %===>_UID29   + 30 %===>_UID30   + 31 %===>_UID31   + 32 %===>_UID32   +
+  33 %===>_UID33   + 34 %===>_UID34   + 35 %===>_UID35   + 36 %===>_UID36   +
+  37 %===>_UID37   + 38 %===>_UID38   + 39 %===>_UID39   + 40 %===>_UID40   +
+  41 %===>_UID41   + 42 %===>_UID42   + 43 %===>_UID43   + 44 %===>_UID44   +
+  45 %===>_UID45   + 46 %===>_UID46   + 47 %===>_UID47   + 48 %===>_UID48   +
+  49 %===>_UID49   + 50 %===>_UID50   + 51 %===>_UID51   + 52 %===>_UID52   +
+  53 %===>_UID53   + 54 %===>_UID54   + 55 %===>_UID55   + 56 %===>_UID56   +
+  57 %===>_UID57   + 58 %===>_UID58   + 59 %===>_UID59   + 60 %===>_UID60   +
+Press%END KEY+to terminate process+
)PROC
 VER (&UID1,NB)
)END
./       ADD   NAME=SLSSUTIL
%------------- SLSS (Utilities) ------------------------------------------------
%OPTION%===>_SLSSOPT
%
+   Enter option for library:%&SLSS+
%
%
%   1 +DELETE      - Delete library
%
%   2 +KEYWORDS    - Create Keyword scan file
%
%   3 +PRINT       - Produce hardcopy output
%
%   4 +SORT        - Sort library
%
%   5 +BROWSE AUTH - Add/Change/Delete users allowed to browse library
%
%   6 +EDIT AUTH   - Add/Change/Delete users allowed to edit library
%
%   7 +LIBRARY     - Add/Change/Delete library name, owner, location
%
%   8 +RESET       - Reset Library and Enqueue after an error has occured
%
%
)PROC
  VER (&SLSSOPT,NB,LIST,1,2,3,4,5,6,7,8)
)END
./       ADD   NAME=SLSS1TIM
%------------ SLSS (Initialization Process) ------------------------------------
+
+
+ This is the first time that the SLSS process has been invoked.  A control
+ file is required before any libraries can be established.  This process will
+ build the control file 'SLSSCNTL' in a ISPF output table.  Enter the data
+ set name to be used as for the output DDNAME(ISPTABL).  This process will
+ free the DDNAME(ISPTABL) and re-allocate the DDNAME with the supplied data
+ set name.
+
+ ISPF OUTPUT TABLE LIBRARY:
+    PROJECT%===>_SLSSPROJ+
+    LIBRARY%===>_SLSSLIBR+
+    TYPE   %===>_SLSSTYPE+
+
+ OTHER PARTITIONED DATA SET:    (Do not enter the member name)
+    DATA SET NAME %===>_SLSSOTHR                                    +
+
+
+
+
+
+
)INIT
  &A1 = ' '
  &A2 = ' '
  &SLSSDSN = ' '
)PROC
  IF (&SLSSOTHR = ' ')
    VER (&SLSSPROJ,NB,DSNAME)
    VER (&SLSSLIBR,NB,DSNAME)