         MACRO
&NAME    QSTOP &MAIN=NO
&NAME    L     R13,4(R13)     LOAD NEXT LOWER SAVE AREA SET
         LM    R14,R12,12(R13) STANDARD REGISTER RESTORE
         AIF   ('&MAIN' NE 'YES').MAINOK
         SLR   R15,R15        ZERO RETURN CODE
.MAINOK  ANOP
         BR    R14            RETURN TO CALLER
         MEND
