         MACRO
&NAME   @E     &DUMMY
&NAME    DC    AL1(ENDTB)
         MEND
         MACRO
&NAME   @N     &A
         LCLA  &I
         LCLC  &Z
         AIF   (N'&SYSLIST NE 0).A
         AIF   ('&NAME' EQ '').D
&NAME    DS    0CL8
         AGO   .D
.A       ANOP
&Z       SETC  ' '
         AIF   ('&NAME' EQ '').B
&Z       SETC  '&NAME'
.B       ANOP
&I       SETA  1
.C       ANOP
&Z       DC    CL8'&SYSLIST(&I)'
         AIF   (N'&SYSLIST EQ &I).D
&Z       SETC  ' '
&I       SETA  &I+1
         AGO   .C
.D       MEND
         MACRO
&NAME   @O     &A
         AIF   (T'&A EQ 'O').OPM
&NAME    DC    AL1(&A)
         MEXIT
.OPM     MNOTE 8,' OPTION MISSING *********************************** '
         MEND
         MACRO
&NAME   @S     &A
         AIF   ('&NAME' EQ '').LNM
&NAME    DC    AL1(&A)
         MEXIT
.LNM     MNOTE 8,' LABEL NAME MISSING ******************************* '
         MEND
         MACRO
&NAME   @ST    &A,&B
         AIF   (N'&SYSLIST NE 2).INO
         AIF   (T'&A EQ 'O').INO
         AIF   (T'&B EQ 'O').INO
         AIF   ('&A'(1,1) EQ '(').A
&NAME    DC    CL3'&A',CL3' ',AL4(&B)
         MEXIT
.A       ANOP
&NAME    DC    CL3'&A(1)',CL3'&A(2)',AL4(&B)
         MEXIT
.INO     MNOTE 8,' INVALID NUMBER OF OPERANDS *********************** '
         MEND
         MACRO
&NAME   @T     &A,&B,&TYPE=
         AIF   ('&TYPE' EQ 'ST').A
&NAME    DC    CL4'&A',AL4(&B)
         MEXIT
.A       ANOP
&NAME    DC    CL4'&A',AL4(X'80000000'+&B)
         MEND
         MACRO
&NAME   @V     &A,&B
         AIF   (N'&SYSLIST NE 2).INO
         AIF   (T'&A EQ 'O').INO
         AIF   (T'&B EQ 'O').INO
         AIF   ('&A'(1,1) EQ '(').A
&NAME    DC    CL6'&A',CL6' ',AL4(&B)
         MEXIT
.A       ANOP
&NAME    DC    CL6'&A(1)',CL6'&A(2)',AL4(&B)
         MEXIT
.INO     MNOTE 8,' INVALID NUMBER OF OPERANDS *********************** '
         MEND
