AOCI     TITLE 'AUTOMATIC OPERATORS COMMANDS ISSUER.'
         PRINT OFF
         MACRO           GENERATE TABLE KEYWORDS ENTRIES.
&NAME   $KW    &RA,&KN,&KA
         LCLC  &X
.*
.* $KW MACRO : RA = ROUTINE ADDRESS.
.* ----------- KN = KEYWORD NAME.
.*             KA = KEYWORD ALIAS (OPTIONAL).
.*      NOTE : KN AND KA MAY BE SPECIFIED (...,N) TO SUPPRESS THE
.*             FINAL BLANK GENERATION.
.*
         AIF   (N'&SYSLIST GT 3).TOO
         AIF   (N'&SYSLIST EQ 0).MIS
         AIF   (T'&RA EQ 'O' AND T'&KN EQ 'O').MIS
&X       SETC  'IHB'.'&SYSNDX'
&NAME    DC    AL1(L'&X-1)
         AIF   ('&KN(2)' NE '').A
&X       DC    C'&KN ',AL4(&RA)
         AGO   .B
.A       AIF   ('&KN(2)' NE 'N').BKN
&X       DC    C'&KN(1)',AL4(&RA)
.B       AIF   (T'&KA EQ 'O').END
         DC    AL1(L'&X.A-1)
         AIF   ('&KA(2)' NE '').C
&X.A     DC    C'&KA ',AL4(&RA)
         MEXIT
.C       AIF   ('&KA(2)' NE 'N').BKA
&X.A     DC    C'&KA(1)',AL4(&RA)
         MEXIT
.TOO     MNOTE 8,' TOO MANY OPERANDS ******************************** '
         MEXIT
.MIS     MNOTE 8,' OPERANDS MISSING ********************************* '
         MEXIT
.BKN     MNOTE 8,' 2ND OPERAND SYNTAX ERROR ************************* '
         MEXIT
.BKA     MNOTE 8,' 3RD OPERAND SYNTAX ERROR ************************* '
.END     MEND
         PRINT ON
         SPACE 1
* PURPOSE :    ISSUE OPERATORS COMMANDS (STARTED TASK OR SPECIFIC
* ---------    BACKGROUND JOBS ONLY). WHEN EXECUTED IN FOREGROUND
*              REGION BY AN AUTHORIZED TSO USER, THE PROGRAM ENTER
*              A SPECIAL TEST MODE, USEFULL TO DEBUG THE OPERATORS
*              COMMANDS SEQUENCE PROCESS (USING TERMINAL TPUT/TGET).
*
* AUTHOR :     MOINIL P.A.
* --------     COMPUTING CENTRE
*              J.R.C. - ISPRA ESTABLISHMENT
*              21020 ISPRA (VA), ITALY
*
* INVOKED BY : 1. CONSOLE START COMMAND :
* ------------      S AUTO,FROM='...PO-DSNAME...',
*                          M=...MEMBER-NAME...
*
*              2. PROCEDURE (AUTHORIZED JOB) :
*                   //... EXEC AUTO,FROM='...PO-DSNAME...',
*                                   M=...MEMBER-NAME...
*                 WHERE AUTO PROCEDURE SKELETON MAY BE :
*                   //AUTO    PROC M=...,FROM='...'
*                   //AUTO    EXEC PGM=AUTOCI,PARM='&M'
*                   //STEPLIB   DD DSN=...LIBRARY...,DISP=SHR
*                   //SYSPDS    DD DSN=&FROM,DISP=SHR
*
*              3. JCL (AUTHORIZED JOB) :
*                   //... EXEC PGM=AUTOCI,PARM='...MEMBER-NAME...'
*                   //STEPLIB  DD DSN=...LIBRARY...,DISP=SHR
*                   //SYSPDS   DD DSN=...PO-DSNAME...,DISP=SHR
*
*              4. TSO TEST MODE (AUTHORIZED USER) :
*                   ALLOC DA(...PO-DSNAME...) F(SYSPDS) SHR
*                   CALL '...LIBRARY...(AUTOCI)' '...MEMBER-NAME...'
*                                           OR : '...MEMBER-NAME.../S'
*                   FREE F(SYSPDS)
*                 NOTE : CAN BE A CLIST IF DESIRED. '/S' MAY BE ADDED
*                        AFTER THE MEMBER-NAME TO SEND THE OPERATORS
*                        COMMANDS TO THE OPERATING SYSTEM.
*
*              5. TSO COMMAND OR SUB-COMMAND (AUTHORIZED USER) :
*                   AUTOCI ...PO-DSNAME... ...MEMBER-NAME... T(EST)
*                                                            S(YSTEM)
*                 NOTE : OPTION T OR TEST IS THE DEFAULT, WHEN S OR
*                        SYSTEM IS USED, THE OPERATORS COMMANDS ARE
*                        SENDED TO THE OPERATING SYSTEM.
         EJECT
* PARAMETERS FIELD : PARM=...MEMBER-NAME... TO SUPPLY THE INITIAL
* ------------------ OPERATORS COMMANDS MEMBER NAME.
*              ...MEMBER-NAME... MAY BE 1 UP TO 8 CHARACTERS LONG.
*
* INPUT DATA (SYSPDS) : COLUMNS 1 TO 72 OF CARDS CAN BE USED FOR
* --------------------- OPERATORS COMMANDS OR INSTRUCTIONS CODING.
*              NO FIXED COLUMNS NOR CONTINUATIONS ARE PROVIDED.
*
* INSTRUCTIONS : EACH MUST BE CODED ON A SEPARATE CARD AND MUST BE
* -------------- FOLLOWED BY AT LEAST ONE BLANK, EXCEPT THE NULL
*                INSTRUCTION WHICH MAY BE FOLLOWED BY ANOTHER ONE
*                (OBVIOUSLY NOT ANOTHER NULL) OR AN OPERATOR COMMAND
*                IN THE SAME CARD.
*
*    *  ...TEXT...
*         A STARTING ASTERISK (*) MEANS A COMMENT CARD.
*
*    GDATE  (ALIAS @G)
*         DISPLAY THE DATE AND TIME OF DAY.
*
*    MESSAGE  ...TEXT...  (ALIAS @M)
*         SEND A MESSAGE TEXT TO THE MAIN CONSOLE.
*         ...TEXT... MAY BE 55 CHARACTERS LONG AT MAXIMUM, OTHERWISE
*                   IT IS TRUNCATED.
*
*    PAUSE  ...TEXT...  (ALIAS @P)
*         SEND A MESSAGE TEXT TO THE MAIN CONSOLE AND ALLOW THE
*         OPERATOR TO REPLY IN ORDER TO CONTINUE OR STOP IMMEDIATELY
*         THE COMMANDS SEQUENCE OF THE CURRENT MEMBER (EXECUTE) OR
*         THE MAIN MEMBER (PROGRAM).
*         THE OPERATOR RESPONSE MAY BE 0 UP TO 8 CHARACTERS LONG AND
*         IS AVAILABLE TO VARIOUS OTHER STATEMENTS (UNTIL THE NEXT
*         PAUSE), UNLESS THE REPLY TEXT IS 'CANCEL', WHICH CAUSE THE
*         IMMEDIATE STOP AS PREVIOUSLY EXPLAINED.
*         ...TEXT... MAY BE 55 CHARACTERS LONG AT MAXIMUM, OTHERWISE
*                   IT IS TRUNCATED.
*
*    NULL  SSSS  (OR :SSSS)
*         DEFINE A SEQUENCE SYMBOL TO WHICH A BRANCH INSTRUCTION REFERS
*         (I.E. - GOTO, IF'S, ...).
*         SSSS : IS THE SEQUENCE SYMBOL. IT MAY BE 1 UP TO 8 CHARACTERS
*                   LONG.
*
*    GOTO  SSSS  (ALIAS GO)
*         ALLOWS TO BRANCH UNCONDITIONALLY.
*         SSSS : IS A SEQUENCE SYMBOL TO WHICH THE BRANCH IS DONE
*                   (SSSS MUST BE DEFINED IN A NULL INSTRUCTION).
*                   SSSS MAY BE 1 UP TO 8 CHARACTERS LONG.
         EJECT
*    IF-REPLY  WWWW  ....  SSSS  (ALIAS IF-R)
*         ALLOWS TO BRANCH ACCORDING TO A TEST RESULT ON THE PREVIOUS
*         PAUSE ... OPERATOR RESPONSE. THUS THE SEQUENCE IN WHICH THE
*         OPERATORS COMMANDS ARE PROCESSED CAN BE ALTERED.
*         WWWW MAY BE ONE OF THE FOLLOWING OPERATORS :
*                   EQ (OR =)     NE (OR /)     LT (OR <)
*                   GT (OR >)     LE (OR <=)    GE (OR >=)
*         .... : IS THE DESIRED VALUE TO TEST (TO INDICATE A NULL
*                   RESPONSE, ZERO LENGTH REPLY, CODE '').
*                   THE TEST IS DONE WITH THE VALUE LENGTH, THIS MEANS
*                   THAT 'YES' MATCHES ALSO 'Y' IN
*                        IF-R  EQ  Y  ACCEPT
*                   (THE BRANCH IS TAKEN), OR '9' IS GREATER THAN '50'
*                   IN
*                        IF-R  LE  50  ACCEPT
*                   (THE BRANCH IS NOT TAKEN).
*         SSSS : IS A SEQUENCE SYMBOL TO WHICH THE BRANCH IS TAKEN IF
*                   THE CONDITION IS TRUE, OTHERWISE THE PROCESS
*                   CONTINUE IN SEQUENCE (SSSS MUST BE DEFINED IN A
*                   NULL INSTRUCTION).
*                   SSSS MAY BE 1 UP TO 8 CHARACTERS LONG.
*
*    IF-REPLY-CHAR  WWWW  ....  SSSS  (ALIAS IF-C)
*         IDENTICAL TO IF-REPLY, BUT THE OPERATOR RESPONSE AND THE TEST
*         VALUES ARE COLLATING SEQUENCE COMPARED, THUS THE TWO VALUES
*         ARE LEFT PADDED WITH BLANKS (SO 'YES' DOES NOT MATCH 'Y' BUT
*         IS GREATER, AND '9' IS LOWER THAN '50').
*
*    IF-REPLY-BIN  WWWW  ....  SSSS  (ALIAS IF-B)
*         IDENTICAL TO IF-REPLY, BUT THE OPERATOR RESPONSE AND THE TEST
*         VALUES ARE CONSIDERED INTEGER NUMBERS FOR COMPARE (SO '9' IS
*         LESS THAN '50').
*                   NOTE : PLUS (+) OR MINUS (-) SIGN IS NOT ACCEPTED.
*
*    IF-REPLY-HEX  WWWW  ....  SSSS  (ALIAS IF-H)
*         IDENTICAL TO IF-REPLY, BUT THE OPERATOR RESPONSE AND THE TEST
*         VALUES ARE CONSIDERED HEXADECIMALS FOR COMPARE (SO 'F' IS
*         LESS THAN 'A0').
*                   NOTE : PLUS (+) OR MINUS (-) SIGN IS NOT ACCEPTED.
*
*    VER-BIN  SSSS  (ALIAS V-B)
*    VER-HEX  SSSS  (ALIAS V-H)
*         ALLOWS TO VERIFY THE OPERATOR RESPONSE FOR ONLY NUMERICS
*         (0-9) OR HEXADECIMALS (0-9,A-F) CHARACTERS CONTENTS.
*         THE BRANCH IS TAKEN IF A WRONG CHARACTER IS DETECTED.
*                   NOTE : PLUS (+) OR MINUS (-) SIGN IS NOT ACCEPTED.
*         SSSS : IS A SEQUENCE SYMBOL TO WHICH THE BRANCH IS TAKEN IF
*                   THE WRONG CONDITION IS TRUE, OTHERWISE THE PROCESS
*                   CONTINUE IN SEQUENCE (SSSS MUST BE DEFINED IN A
*                   NULL INSTRUCTION).
*                   SSSS MAY BE 1 UP TO 8 CHARACTERS LONG.
         EJECT
*    IF-REPLY-ID  ....  SSSS  (ALIAS IF-ID)
*         ALLOWS TO BRANCH ACCORDING TO A SEARCH FOR A REPLY PENDING
*         ID FOUND. THUS THE SEQUENCE IN WHICH THE OPERATORS COMMANDS
*         ARE PROCESSED CAN BE ALTERED.
*         .... : IS THE DESIRED MESSAGE-ID TEXT (MUST BE AT LEAST 8
*                   CHARACTERS LONG). IF ANY BLANKS ARE NEEDED (UNLESS
*                   LEADING BLANKS UP TO 8 CHARACTERS), THE MESSAGE-ID
*                   MUST BE GIVEN AS A QUOTED CHARACTERS STRING, SO A
*                   NEEDED QUOTE IN THE TEXT MUST BE DOUBLED.
*         SSSS : IS A SEQUENCE SYMBOL TO WHICH THE BRANCH IS TAKEN
*                   IF THE REPLY-ID IS FOUND, OTHERWISE THE PROCESS
*                   CONTINUE IN SEQUENCE (SSSS MUST BE DEFINED IN A
*                   NULL INSTRUCTION).
*                   SSSS MAY BE 1 UP TO 8 CHARACTERS LONG.
*         WHEN THE REPLY-ID IS FOUND, THE EDITED REPLY NUMBER IS SET
*         IN THE RESERVED VARIABLE NAMED 'RPID' (2 CHARACTERS LONG),
*         THIS ALLOWING THE '&S-RV(RPID)...REPLY TEXT...' STRING TO
*         BE AN OPERATOR REPLY COMMAND.
*
*    LOGICAL  VAR1  VAR2  ...  VARN  (ALIAS @L)
*         DEFINE PROCESSING LOGICAL VARIABLES (NAME MAY BE 1 UP TO 8
*         CHARACTERS LONG). THE INITIAL VALUE OF THESE VARIABLES IS
*         'FALSE'.
*
*    TRUE  VAR1  VAR2  ...  VARN  (ALIAS @T)
*    FALSE  VAR1  VAR2  ...  VARN  (ALIAS @F)
*         SET LOGICAL VARIABLES VALUE TO 'TRUE' OR 'FALSE'.
*
*    IF-TRUE  VARN  SSSS  (ALIAS IF-T)
*    IF-FALSE  VARN  SSSS  (ALIAS IF-F)
*         TEST THE LOGICAL VARIABLE 'VARN' ON 'TRUE' OR 'FALSE' VALUE.
*         SSSS : IS A SEQUENCE SYMBOL TO WHICH THE BRANCH IS TAKEN IF
*                   THE CONDITION IS MET, OTHERWISE THE PROCESS
*                   CONTINUE IN SEQUENCE (SSSS MUST BE DEFINED IN A
*                   NULL INSTRUCTION).
*
*    SET-REPLY  VVVV  (ALIASES SET, SET-VAR )
*    SET-VAR  VVVV  ....  (ALIASES SET, SET-REPLY)
*         MEMORIZE THE CURRENT AVAILABLE PAUSE ... OPERATOR RESPONSE
*         (0 UP TO 8 CHARACTERS LONG) OR A SPECIFIC VALUE (0 UP TO 8
*         CHARACTERS LONG) IN A VARIABLE.
*         VVVV IS THE VARIABLE NAME. IT MAY BE 1 UP TO 8 CHARACTERS
*                   LONG, AND CANNOT BE ONE OF THE RESERVED NAME (SEE
*                   IF QQQQ WWWW .... SSSS STATEMENT).
*         .... : IS THE DESIRED VALUE TO STORE (TO INDICATE A NULL
*                   VALUE, ZERO LENGTH, CODE '').
*         THEN THE STRING &S-RV(VVVV), INTO WHICH VVVV IS THE VARIABLE
*         NAME OR ONE OF THE RESERVED NAMES (HERE IT IS ACCEPTED), IS
*         REPLACED BY THE VARIABLE VALUE IF ENCOUNTERED IN THE TEXT OF
*         ANY MESSAGE, PAUSE, IF-REPLY'S, EXECUTE, SUBMIT, T-WAIT,
*         COMMON INSTRUCTIONS OR OPERATORS COMMANDS.
         EJECT
*    IF  QQQQ  WWWW  ....  SSSS
*    IF-VAR  VVVV  WWWW  ....  SSSS  (ALIAS IF-V)
*         ALLOWS TO BRANCH ACCORDING TO THE RESULT OF A CONDITION TEST.
*         THUS THE SEQUENCE IN WHICH THE OPERATORS COMMANDS ARE
*         PROCESSED CAN BE ALTERED.
*         QQQQ MAY BE ONE OF THE FOLLOWING RESERVED NAMES :
*                   SID : MEANS THE SYSTEM ID (FROM SMF : SSSS).
*                   CPU : MEANS THE CPU MODEL (FROM CVT : MMMM).
*                   SDATE : MEANS THE STANDARD DATE (YYMMDD).
*                   JDATE : MEANS THE JULIAN DATE (YYDDD).
*                   DAY : MEANS THE CURRENT DAY NAME (SUN, MON,
*                             TUE, WED, THU, FRI AND SAT).
*                   MONTH : MEANS THE CURRENT MONTH NAME (JAN,
*                             FEB, MAR, APR, MAY, JUN, JUL, AUG,
*                             SEP, OCT, NOV AND DEC).
*                   TIME : MEANS THE CURRENT TIME OF DAY IN
*                             HOURS/MINUTES (FORMAT : HHMM).
*                   HOURS : MEANS THE HOURS (HH PART OF TIME).
*                   MINS : MEANS THE MINUTES (MM PART OF TIME).
*                   YEAR : MEANS THE YEAR (YY PART OF SDATE).
*                   SMONTH : MEANS THE MONTH (MM PART OF SDATE).
*                   SDAY : MEANS THE DAY (DD PART OF SDATE).
*                   JDAY : MEANS THE DAY (DDD PART OF JDATE).
*         VVVV IS THE NAME OF A VARIABLE WHICH HAS BEEN DEFINED BY A
*                   PREVIOUS SET-REPLY OR SET-VAR. IT MAY BE 1 UP TO 8
*                   CHARACTERS LONG.
*         WWWW MAY BE ONE OF THE FOLLOWING OPERATORS :
*                   EQ (OR =)     NE (OR /)     LT (OR <)
*                   GT (OR >)     LE (OR <=)    GE (OR >=)
*         .... : IS THE DESIRED VALUE TO TEST.
*                   NOTE : THE TEST IS DONE WITH THE VALUE LENGTH AND
*                   RIGHT JUSTIFIED (I.E. : TIME EQ 945 MATCHES 0945 AM
*                   AND 1945 PM).
*         SSSS : IS A SEQUENCE SYMBOL TO WHICH THE BRANCH IS TAKEN
*                   IF THE CONDITION IS TRUE, OTHERWISE THE PROCESS
*                   CONTINUE IN SEQUENCE (SSSS MUST BE DEFINED IN A
*                   NULL INSTRUCTION).
*                   SSSS MAY BE 1 UP TO 8 CHARACTERS LONG.
         EJECT
*    EXECUTE  ...PO-DSNAME...  ...MEMBER-NAME...  (ALIAS @E)
*             *  ...MEMBER-NAME...
*         ALLOWS THE EXECUTION OF ANOTHER MEMBER CONTAINING OPERATORS
*         COMMANDS SEQUENCE, THEN AT END OF THIS MEMBER THE PROCESS
*         CONTINUE IN SEQUENCE (UP TO 99 NESTED EXECUTE MAY BE
*         DEFINED).
*         ...PO-DSNAME... IS THE PARTITIONED DATA-SET NAME, AND MAY BE
*                   1 UP TO 44 CHARACTERS LONG. WHEN * (ASTERISK) FORM
*                   IS CODED, IT MEANS THE CURRENT DATA-SET IN USE.
*         ...MEMBER-NAME... MAY BE 1 UP TO 8 CHARACTERS LONG.
*
*    SUBMIT  *(...MEMBER-NAME...)  (ALIAS SUB)
*            ...PO-DSNAME...(...MEMBER-NAME...)
*            ...PS-DSNAME...
*         ALLOWS THE SUBMIT OF A BATCH JOB FOR CONVENTIONAL PROCESSING.
*         THE JOB SUBMITTED MUST RESIDE IN EITHER A MEMBER OF A
*         PARTITIONED OR A SEQUENTIAL DATA-SET.
*         SUBMITTED DATA-SET MUST BE FIXED 80-BYTES RECORDS (BLOCKED
*         OR UNBLOCKED).
*                   NOTE : THE JCL JOB STATEMENT MUST BE THE FIRST AND
*                   MAY CONTAIN ALL THE NEEDED INFORMATION.
*         ...PO-DSNAME... IS THE PARTITIONED DATA-SET NAME, AND MAY BE
*                   1 UP TO 44 CHARACTERS LONG. WHEN * (ASTERISK) FORM
*                   IS CODED, IT MEANS THE CURRENT DATA-SET IN USE.
*         ...MEMBER-NAME... MAY BE 1 UP TO 8 CHARACTERS LONG.
*         ...PS-DSNAME... IS THE SEQUENTIAL DATA-SET NAME, AND MAY BE
*                   1 UP TO 44 CHARACTERS LONG.
*         NOTE : THE SUBMIT FUNCTION SUPPLIES THE PASSWORD ONLY IF THE
*                USER=... KEYWORD IS CODED AND THE PASSWORD=... KEYWORD
*                IS NOT CODED (THIS ASSUMES THE JOB STATEMENT IS MORE
*                THAN ONE CARD CODED).
* --- SUPPRESS - IF YOU DON'T WANT SUPPLY THE PASSWORD AS DESCRIBED
*                ABOVE, YOU MAY BYPASS THIS PROCESS BY SETTING THE BIT
*                'SWJS' PERMANENTLY ON IN THE SWITCH BYTE 'SWJBSC'.
*
*    T-WAIT  SECS  (ALIAS @W)
*         ALLOWS TO WAIT-A-BIT.
*         SECS : IS THE NUMBER (1-120) OF SECONDS TO WAIT. IF OMITTED
*                   OR 0 IS SPECIFIED, IT MEANS NO WAIT.
         EJECT
*    LOAD-COMMON  ...PO-DSNAME...  ...MEMBER-NAME...  (ALIAS @CL)
*    SAVE-COMMON  ...PO-DSNAME...  ...MEMBER-NAME...  (ALIAS @CS)
*         LOAD FROM OR SAVE IN THE INDICATED DATA-SET MEMBER ALL THE
*         COMMON-SWITCHES (1-400).
*                   NOTE : AS SOON AS THE EXECUTION BEGINS, ALL THE
*                   COMMON-SWITCHES ARE AVAILABLES (VALUE 'FALSE').
*                   A LOAD FROM ANY UNEXISTANT MEMBER OF AN EXISTING
*                   PO DATA-SET RESULTS IN A NO-OPERATION, SO ALL THE
*                   COMMON-SWITCHES REMAIN AS THEY WERE.
*         ...PO-DSNAME... IS THE PARTITIONED DATA-SET NAME, AND MAY BE
*                   1 UP TO 44 CHARACTERS LONG.
*         ...MEMBER-NAME... MAY BE 1 UP TO 8 CHARACTERS LONG.
*
*    SET-COMMON  NNN  NNN  ...  OR  ( NNN - NNN )  ...  (ALIAS @CT)
*    RESET-COMMON  NNN  NNN  ...  OR  ( NNN - NNN )  ...  (ALIAS @CF)
*         SET THE COMMON-SWITCH NUMBER NNN (1-400) OR RANGE OF
*         COMMON-SWITCHES NUMBERS (FROM-TO) VALUE TO 'TRUE' OR 'FALSE'.
*
*    IF-COMMON-TRUE  NNN  SSSS  (ALIAS @CIT)
*    IF-COMMON-FALSE  NNN  SSSS  (ALIAS @CIF)
*         TEST THE COMMON-SWITCH NUMBER NNN (1-400) ON 'TRUE' OR
*         'FALSE' VALUE.
*         SSSS : IS A SEQUENCE SYMBOL TO WHICH THE BRANCH IS TAKEN IF
*                   THE CONDITION IS MET, OTHERWISE THE PROCESS
*                   CONTINUE IN SEQUENCE (SSSS MUST BE DEFINED IN A
*                   NULL INSTRUCTION).
         EJECT
AUTOCI   START 0
         SPACE 1
AUTOCI  AMODE  24
AUTOCI  RMODE  24
         SPACE 1
        $DEFREG
* - - - - - - - - - - - - - - - - - - - - - - - - - - - - - - - *
*        AUTHORITY LEVELS DEFINITIONS.                          *
* - - - - - - - - - - - - - - - - - - - - - - - - - - - - - - - *
         SPACE 1
LV0      EQU   0         REJECT LEVEL.
         SPACE 1
        $MDL@IX
         SPACE 2
*        DEFINE TABLES DIMENSIONS.
*        -------------------------
         SPACE 1
MAXDD    EQU   99        MAX. DD-NAMES ALLOCATION
*                        (MIN=0, MAX=999).
MAXLV    EQU   100       MAX. LOGICAL VARIABLES NAMES
*                        (MIN=1, MAX=2040).
MAXRV    EQU   100       MAX. REPLY VARIABLES NAMES
*                        (ONLY MIN=1).
         SPACE 1
EOT      EQU   X'FF'               END OF TABLE INDICATOR.
         EJECT
        PRINT  NOGEN
        $DYNLIST
        PRINT  GEN
         SPACE 2
*        DYNAMIC DD-NAMES TABLE (EXECUTE).
*        ---------------------------------
         SPACE 1
DDTAB    DSECT
DDTFN    DS    AL2                 FILE NO.
DDTNME   DS    CL8                 FILE NAME (DD-NAME).
DDTMBN   DS    CL8                 MEMBER NAME.
DDTDSN   DS    CL44                DATA-SET NAME.
DDTABL   EQU   *-DDTAB             ELEMENT LENGTH.
         SPACE 2
*        LOGICAL VARIABLES TABLE AND SWITCHES BYTES.
*        -------------------------------------------
*
         SPACE 1
LVART    DSECT
LVARNME  DS    CL8                 VARIABLE NAME.
LVARSBN  DS    AL1                 SWITCH BYTE NUMBER.
LVARSMB  DS    XL1                 SWITCH MASK BIT.
LVARTL   EQU   *-LVART             ELEMENT LENGTH.
         SPACE 2
*        REPLY VARIABLES TABLE.
*        ----------------------
*
         SPACE 1
RVART    DSECT
RVARNME  DS    CL8                 VARIABLE NAME.
RVARV    DS    CL8                 VARIABLE VALUE (PADDED WITH BLANKS).
RVARVL   DS    AL1                 VARIABLE VALUE LENGTH.
RVARTL   EQU   *-RVART             ELEMENT LENGTH.
         SPACE 1
AUTOCI   CSECT ,                   RESTORE CURRENT MAIN SECTION
         EJECT
        $HEDIT
        $XENT  BASE=(R11,R12)
         EJECT
         LR    R4,R1               SAVE FOR LATER USE.
         L     R10,=A(GWATBS)
         BASR  R8,R10              GET WORK-AREAS AND TABLES SPACES.
         SPACE 2
*        VERIFY AUTHORITY.
*        -----------------
         SPACE 1
        $EACM  REQAUT
        EXTRACT ANSWER,'S',FIELDS=(TIOT,COMM,TSO,PSB)
         L     R2,ACOMM            COMMUNICATION AREA ADDRESS.
         L     R3,4(R2)            CIB ADDRESS.
         LA    R3,0(R3)            CLEAR HIGH BYTE.
         LTR   R3,R3               CURRENT CIB SET UP?
         BZ    *+L'*+8             NO.
         USING CIBDSECT,R3
         CLI   CIBVERB,CIBSTART    START COMMAND (SYSTEM TASK)?
         BE    PFAN                YES.
         DROP  R3
         L     R2,ATSO             TSO INDICATOR ADDRESS.
         TM    0(R2),X'80'         ARE WE IN TSO?
         BO    TPTSO               YES.
         CLI   AUTH,LV0            AUTHORIZED?
         BNE   PFAN                YES.
         L     R3,ATIOT            GET TIOT ADDRESS.
         USING TIODSECT,R3
         MVC   MSAUT+8(8),TIOCNJOB MOVE JOB-NAME IN MESSAGE.
         DROP  R3
        WTO    MF=(E,MSAUT)
         B     SETCC
TPTSO    L     R1,APSCB            PSCB ADDRESS.
         LTR   R1,R1
         BZ    NOTSO
         CLI   AUTH,LV0            AUTHORIZED?
         BE    NOTSO               NO.
         OI    SWITCH,SWTR         SET TSO TEST MODE.
         USING CPPL,R4
         USING PSCB,R1
         CLC   PSCBUPT,CPPLUPT     CPPL+4 = UPT ADDRESS?
         BNE   *+L'*+10            NO.
         DROP  R1
         CLC   CPPLPSCB(4),APSCB   CPPL+8=PSCB ADDRESS?
         BE    XTSO                YES, TSO COMMAND.
         DROP  R4
         USING IKJEBECA,R4
         L     R1,CAPTTMP          CPPL ADDRESS.
         DROP  R4
         USING CPPL,R1
         CLC   CPPLPSCB(4),APSCB   CPPL+8=PSCB ADDRESS?
         BE    XTSOS               YES, TSO SUB-COMMAND.
         DROP  R1
        TPUT   TSTART,L'TSTART
         B     PFAN
NOTSO   TPUT   TSAUT,L'TSAUT
SETCC    LA    R9,128              C.C. = 128.
         B     EXIT
         SPACE 2
*        TSO COMMAND OR SUB-COMMAND.
*        ---------------------------
         SPACE 1
XTSOS    LR    R4,R1
         USING CPPL,R4
XTSO     ST    R4,ACCPL
         MVC   PPLUPT,CPPLUPT      SET UP PARM. FOR PARSE.
         MVC   PPLECT,CPPLECT
         MVC   PPLCBUF,CPPLCBUF
        CALLTSSR EP=IKJPARS,MF=(E,PPLUPT)
         B     *+L'*(R15)          BRANCH ON RETURNED CODE :
         B     PARSOK              + 0 - SUCCESSFULL.
         B     ERROR1              + 4 - UNABLE TO PROMPT.
         B     RETURN              + 8 - USER ATTENTION OCCURED.
         B     ERROR2              +12 - PROGRAM BUG.
         B     ERROR3              +16 - SPACE UNAVAILABLE IN REGION.
         B     ERROR4              +20 - INVALID PARM.
         B     ERROR5              +24 - PARM. CONFLICT.
         B     ERROR6              +28 - TERMINAL DISCONNECTED.
PARSOK   L     R3,PPLANSS          CHECK ANSWER ADDRESS.
         LA    R3,0(R3)
         LTR   R3,R3
         BZ    ERROR7              PARSE ERROR.
         MVC   DAPLUPT,CPPLUPT     SET UP DAIR BLOCK TO ALLOC. FILE.
         MVC   DAPLECT,CPPLECT
         MVC   DAPLPSCB,CPPLPSCB
         DROP  R4
         USING IKJPARMD,R3
         TM    PODSN+6,X'80'       IS PO-DSNAME SUPPLIED?
         BZ    ERROR8              NO.
         TM    PODSN+6,X'40'       CHECK FOR QUOTES?
         BO    *+L'*+4             YES, DON'T TELL DAIR TO PUT USERID.
         OI    DA08CTL,X'20'       FLAG TO PREFIX USERID TO DSNAME.
         LH    R1,PODSN+4          SET UP DSNAME.
         STH   R1,DDSNAML          SAVE LENGTH FOR LATER.
         BCTR  R1,0                EXECUTE LENGTH.
         L     R15,PODSN           GET ADDRESS.
         EX    R1,MVPOD            MOVE IT TO BLOCK.
         TM    PODSN+14,X'80'      SET UP FOR MEMBER NAME ALSO?
         BO    ERROR9              YES, NOT ALLOWED.
         TM    PODSN+22,X'80'      TEST FOR PASSWORD?
         BZ    NOPASS              NO.
         LH    R1,PODSN+20         LENGTH.
         BCTR  R1,0                EXECUTE LENGTH.
         L     R15,PODSN+16        ADDRESS.
         EX    R1,MVPSW            MOVE PASSWORD.
NOPASS   TM    POMEM+6,X'80'       IS MEMBER SUPPLIED?
         BZ    ERROR10             NO.
         LH    R1,POMEM+4          LENGTH.
         BCTR  R1,0                EXECUTE LENGTH.
         L     R15,POMEM           ADDRESS.
         EX    R1,MVPOM            MOVE MEMBER-NAME.
         LH    R1,OPLIST           LOOK EVENTUAL OPTION.
         LTR   R1,R1
         BZ    *+L'*+8
         BCT   R1,*+L'*+4
         OI    SWITCH,SWSY        ALLOW SYSTEM.
         DROP  R3
        IKJRLSA PPLANSS
         L     R1,ADDTAB           GET STARTING DD-NAME.
         USING DDTAB,R1
         MVC   DA08DDN,DDTNME
         DROP  R1
         L     R1,ATIOT
         USING TIODSECT,R1
         XR    R0,R0
XTS1     CLC   TIOELNGH(4),=F'0'
         BE    XTS3
         CLC   TIOEDDNM,DA08DDN
         BE    XTS2
         IC    R0,TIOELNGH
         ALR   R1,R0
         B     XTS1
         DROP  R1
MVPOD    MVC   DDSNAM(*-*),0(R15)  << EXECUTED >>
MVPSW    MVC   DA08PSWD(*-*),0(R15)     << EXECUTED >>
MVPOM    MVC   MEMBER(*-*),0(R15)  << EXECUTED >>
XTS2     LA    R1,DA18CD
         ST    R1,DAPLDAPB
         MVC   DA18DDN,DA08DDN
         BAS   R8,DAIR             FREE ANY PREVIOUS ALLOCATION.
         B     EXIT                RETURN +0.
XTS3     LA    R1,DA08CD                  +4.
         ST    R1,DAPLDAPB
         OI    SWITCH,SWAL
         BAS   R8,DAIR             SET ALLOCATION.
         B     LEAVE               RETURN +0.
         TM    DA08DSO,X'02'              +4, PO ORGANIZATION?
         BZ    NOTPO               NO.
         TM    SWITCH,SWTR
         BZ    GETGI
        TPUT   TSTART,L'TSTART
         B     GETGI
NOTPO   TPUT   TSMNPO,L'TSMNPO
         B     LEAVE
         SPACE 1
*                                  TSO DYNAMIC ALLOCATION ROUTINE.
DAIR     XC    DAPLECBS,DAPLECBS   -------------------------------
        CALLTSSR EP=IKJDAIR,MF=(E,DAPLUPT)
         LTR   R15,R15
         BZ    4(R8)               OK, NORMAL RETURN IS +4.
         ST    R15,RETC            STORE RETURN CODE.
         LA    R1,DFDAPLP          PARM. ADDRESS.
        LINK   EP=IKJEFF18         ERROR MESSAGE ROUTINE.
         LR    R9,R15              GET RETURN CODE.
         BR    R8                  ERROR RETURN IS +0.
         SPACE 2
*        PARM. FIELD ANALYSIS.
*        ---------------------
         SPACE 1
PFAN     L     R4,0(R4)            GET PARM. FIELD ADDRESS.
         LH    R1,0(R4)            PARM. FIELD LENGTH.
         LTR   R1,R1
         BNP   MISS                MISSING.
         LA    R3,2(R4)            SCAN START ADDRESS.
         LA    R5,1(R1,R4)         SCAN END ADDRESS.
         LA    R4,1                SCAN STEP.
         LR    R2,R3
         CLI   0(R3),C'/'          SEARCH MEMBER NAME.
         BE    *+L'*+4
         BXLE  R3,R4,*-8
         LR    R1,R3
         SR    R1,R2
         BNP   MISS                MISSING.
         CH    R1,=H'8'
         BH    PERR                INVALID.
         BCT   R1,*+L'*+6
         MVC   MEMBER(*-*),0(R2)   << EXECUTED >>
         EX    R1,*-6              SET MEMBER NAME.
         TM    SWITCH,SWTR
         BZ    GETGI
         CLR   R3,R5
         BNL   GETGI
         BXLE  R3,R4,*+L'*+4
         B     GETGI
         CLI   0(R3),C'S'
         BNE   GETGI
         OI    SWITCH,SWSY        ALLOW SYSTEM.
         SPACE 2
*        GET GENERAL INFORMATION.
*        ------------------------
         SPACE 1
GETGI    L     R1,CVTPTR
         USING CVT,R1
         L     R2,CVTSMCA          GET SYSTEM ID.
         DROP  R1
         LTR   R2,R2
         BZ    *+L'*+6
         USING SMCABASE,R2
         MVC   SID(L'SID),SMCASID
         DROP  R2
         LA    R1,0(R1)            GET CPU MODEL.
         SL    R1,=F'6'
         UNPK  VLSTR(L'CPU+1),0(3,R1)
         TR    VLSTR(L'CPU),TRTAB-C'0'
         MVC   CPU(L'CPU),VLSTR
         TM    SWITCH,SWTR
         BZ    INIT
        TPUT   TSRQL,L'TSRQL       INSTRUCTIONS LIST OPTION.
RQLBK    XC    CARD(3),CARD
        TGET   CARD,3
         LTR   R15,R15
         BZ    RQLAN
         CH    R15,=H'12'
         BNE   TSOERR
        TCLEARQ INPUT
        TPUT   TSRTL,L'TSRTL
         B     RQLBK
RQLAN    LTR   R1,R1
         BZ    REQINF
         OC    CARD(3),=CL8' '
         CLC   CARD(3),=CL8' '
         BE    REQINF
         CLC   CARD(3),=CL3'N  '
         BE    REQINF
         CLC   CARD(3),=CL3'NO '
         BE    REQINF
         CLC   CARD(3),=CL3'Y  '
         BE    RQLYES
         CLC   CARD(3),=CL3'YES'
         BE    RQLYES
        TPUT   TSRSE,L'TSRSE
         B     RQLBK
RQLYES   OI    SWITCH,SWLS
REQINF   MVC   TSINF+10(L'CPU),CPU
         MVC   TSINF+23(L'SID),SID
        TPUT   TSINF,L'TSINF
        TPUT   TSREQ,L'TSREQ
         XR    R15,R15
REQBK    L     R10,=A(GACHG)
         BASR  R8,R10              GET ANY CHANGES.
         LTR   R1,R1
         BZ    GETDM
         LA    R0,NLP
         LA    R1,CARD
         OC    0(8,R1),=CL8' '
         LA    R1,8(R1)
         BCT   R0,*-10
         LM    R3,R5,SCCD
         CLI   0(R3),C' '          ANALYZE RESPONSE.
         BNE   *+L'*+8
         BXLE  R3,R4,*-8
         B     GETDM
         CLI   0(R3),C'E'
         BE    GETDM
REQCN    CLC   0(4,R3),=CL4'SID='
         BE    RQ1
         CLC   0(4,R3),=CL4'CPU='
         BE    RQ2
REQER    LA    R15,4
         B     REQBK
RQ1      LA    R2,SID
         MVI   VLSTR,C' '
         B     *+L'*+8
RQ2      LA    R2,CPU
         MVI   VLSTR,C'0'
         MVC   VLSTR+1(L'VLSTR-1),VLSTR
         LA    R3,3(R3)
         BXLE  R3,R4,*+L'*+4
         B     REQER
         CLI   0(R3),C' '
         BE    REQER
         LR    R6,R3
         LA    R0,L'SID            OR L'CPU
RQ3      BXLE  R3,R4,*+L'*+4
         B     RQ4
         CLI   0(R3),C' '
         BE    RQ4
         BCT   R0,RQ3
         B     REQER
MVREQ    MVC   0(*-*,R15),0(R6)    << EXECUTED >>
RQ4      LA    R1,L'SID            OR L'CPU
         SR    R1,R0
         LA    R15,VLSTR-1
         AR    R15,R0
         EX    R1,MVREQ
         MVC   0(L'SID,R2),VLSTR   OR L'CPU
         CLR   R3,R5
         BNL   REQNW
         CLI   0(R3),C' '          CONTINUE.
         BNE   *+L'*+8
         BXLE  R3,R4,*-8
         B     REQNW
         CLI   0(R3),C'E'
         BNE   REQCN
REQNW    MVC   TSNEW+23(L'CPU),CPU
         MVC   TSNEW+36(L'SID),SID
        TPUT   TSNEW,L'TSNEW
         SPACE 1
*        GET CURRENT DAY-MONTH-TIME.