ILDS     TITLE '--- I M S L D S --- I.M.S. LOG DATA-SET(S) ---'
         PRINT OFF
         MACRO
&NAME   @CALL  &RTN,&ERR=
         AIF   ('&RTN' EQ '').ERR
&NAME    L     R15,=A(&RTN)        GET ROUTINE ADDRESS
         BASR  R14,R15             LINK TO IT
         AIF   ('&ERR' EQ '').X
         BNZ   &ERR                BRANCH ON ERROR RC
.X       MEXIT
.ERR    MNOTE  8,'===> ROUTINE NAME MISSING *************************'
         MEND
         MACRO
&NAME   @ENTER &DUMMY
         CNOP  0,8
         USING *,R11
&NAME    STM   R14,R12,12(R13)     SAVE CALLER REGISTERS
         LR    R11,R15             LOCAL BASE REGISTER
         LR    R1,R13              OLD SAVE-AREA
         LA    R13,*+L'*+4         NEW SAVE-AREA
         B     *+L'*+18*4
         DC    18F'0' ------------ LOCAL SAVE-AREA
         XC    0(18*4,R13),0(R13)  CLEAN NEW SAVE-AREA
         ST    R13,8(R1)           CHAIN SAVE-AREA'S
         ST    R1,4(R13)
         MEND
         MACRO
&NAME   @EXIT  &RC
&NAME    L     R13,4(R13)          BACK TO PREVIOUS SAVE AREA
         AIF   ('&RC' EQ '').A
         AIF   ('&RC'(1,1) EQ '(').B
         AIF   ('&RC' NE '0').C
.A       XC    16(4,R13),16(R13)   SET RETURN CODE
         AGO   .D
.B       ST    &RC(1),16(R13)      SET RETURN CODE
         AGO   .D
.C       MVC   16(4,R13),=AL4(&RC) SET RETURN CODE
.D       LM    R14,R12,12(R13)     RESTORE REGISTERS
         MVI   12(R13),X'FF'       SET RETURN INDICATOR
         LTR   R15,R15             SET CC ON RETURN CODE
         BR    R14                 RETURN TO CALLER
         MEND
         MACRO
        @STOP  &DUMMY
        LTORG  ,
         SPACE 1
         DROP  R11                 KILL LOCAL ADDRESSABILITY
         MEND
         PRINT ON
         SPACE 1
IMSLDS   START 0
         SPACE 1
* PURPOSE :    AUTOMATIC JCL GENERATION TO CUMULATE ALL DAY'S IMS LOG
* =========    DATA-SET(S) INTO A ONE MONTH DATA-SET.
*
* FUNCTIONAL SUMMARY :
* ====================
*        THE JCL SKELETON, USED FOR JOB GENERATION, IS OBTAINED FROM
*   A MEMBER NAMED IMSLOG.. (DEFAULT FOR .. IS 00), AND LOCATED IN A
*   PREDEFINED PARTITIONED DATA-SET (WITH LRECL=80 AND DECLARED AT THE
*   ASSEMBLY STEP WITH SYSPARM).
*        VARIOUS MEMBERS IMSLOG.. (JCL SKELETONS) CAN BE BUILD AS YOU
*   WANT TO GENERATE DIFFERENT JOBS, ASSUMING THEY ARE ALL BASED ON
*   IMS LOG DATA-SET(S) MANIPULATION (NORMAL JCL STATEMENTS CARDS).
*   THE FIRST JCL STATEMENT SUPPLIED MUST BE A JOB CARD, WHICH WILL
*   BE USED BY SUBMIT WHEN STARTED TASK RUNNING. SOME OTHER CARDS ARE
*   EXPLAINED BELOW :
*        1. CARDS STARTING WITH THREE ASTERISKS (COLUMNS 1-3 = ***)
*           ARE CONSIDERED AS PRIVATE COMMENT CARDS (NEVER COPIED OR
*           SUBMITED).
*        2. SPECIAL CARDS STARTING (COLUMNS 1-2) WITH A QUESTION MARK
*           FOLLOWED BY AN INDICATOR CHARACTER ARE CONTROL PROCESSING
*           ORIENTED.
*           POSITIONAL CONTROL ONLY :
*           ?I = IS MANDATORY AND INDICATE WHERE THE EVENTUAL TYPRUN=
*                PARAMETER CARD CAN BE INSERTED IN THE JOB STATEMENT.
*           ?0 = IS MANDATORY AND INDICATE WHERE STARTS THE NORMAL JCL
*                SKELETON (WHEN NOT STARTED TASK). GENERALLY THIS IS
*                PLACED AFTER THE JOB STATEMENT.
*           SUBSTITUTION VALUES DEFINITION :
*           ?1 = IS MANDATORY AND DEFINES THE IMS DAY'S LOG DATA-SET(S)
*                LEVEL NAME (THIS IS THE LEVEL TO SEARCH THE DAY'S
*                DATA-SET(S) IN THE CATALOG).
*           ?2 = IS OPTIONAL AND DEFINES THE IMS MONTH LOG DATA-SET
*                LEVEL NAME (THIS IS THE LEVEL TO CREATE THE MONTH'S
*                DATA-SET).
*           THEN ?1... AND ?2... CODING ARE USED TO INDICATE WHERE
*           SUBSTITUTION MUST BE DONE IN THE JCL SKELETON.
         EJECT
* HOW TO INVOKE IT :
* ==================
*     1. AS CONSOLE START COMMAND :
*             S IMSLOG,D=YYDDD,J=XX,O=COPY
*                                     SCAN
*        WHERE "IMSLOG" MAY BE, I.E., THE FOLLOWING PROCEDURE :
*             //IMSLOG  PROC D=,J=,O=
*             //IMSLOG  EXEC PGM=IMSLDS,PARM='DAY=&D,JCL=&J,&O'
*                                    OR PARM='D=&D,J=&J,&O'
*     2. AS BATCH EXEC PROCEDURE :
*             //... EXEC IMSLOG,D=YYDDD,J=XX
*     3. AS BATCH EXEC :
*             //... EXEC PGM=IMSLDS,PARM='DAY=YYDDD,JCL=XX'
*                                OR PARM='D=YYDDD,J=XX'
*     4. AS TSO CALL :
*             CALL '...DSNAME...(IMSLDS)' 'DAY=YYDDD,JCL=XX'
*                                      OR 'D=YYDDD,J=XX'
*     5. AS TSO COMMAND OR SUB-COMMAND :
*             IMSLDS ... (FOR SYNTAX DESCRIPTION SEE BELOW) ...
*
* WHERE : - YYDDD IS THE DESIRED SERIAL DAY DATE SELECTION (IF NOT
* -------   SPECIFIED, YESTERDAY DATE IS USED).
*         - JCL=XX (OR JOB=/J=) IS THE TWO CHARACTERS SUFFIX TO FORM
*           THE MEMBER NAME "IMSLOG.." (DEFAULT IS 00).
*         - COPY/SCAN (OR C/S) ARE JCL SUBMIT OPTIONS (JOB TYPRUN).
*
* NOTES : 1. ONLY WHEN RUNNING AS SYSTEM TASK (THROUGH OPERATOR START
* =======    COMMAND), THE "COPY" OR "SCAN" OPTIONS ARE ACCEPTED AND
*            ALL GENERATED JCL STATEMENTS ARE IMMEDIATELY "SUBMIT" TO
*            JES2.
*         2. OTHERWISE (BATCH OR TSO RUNNING), THE GENERATED JCL IS
*            ALWAYS STORED IN A NEW (CREATED) DATA-SET NAMED AS
*            FOLLOWS : '#0.GENJCL.D#1.T#2'
*            WHERE : #0 = CURRENT RACF USER-ID
*                    #1 = YYDDD (CURRENT DAY)
*                    #2 = HHMMSS (CURRENT TIME OF DAY)
*            YOU MAY THEN "SUBMIT" IT, IF YOU WANT.
         EJECT
* TSO COMMAND OR SUB-COMMAND SYNTAX :
* ===================================
*        IMSLDS  DAY(DD/MM/YY)  JCL(XX)  OPTION
*                ALIAS : D(DD/MM/YY)  JOB(XX)
*                                     J(XX)
*        IMSLDS  FROM(DD/MM/YY)  TO(DD/MM/YY)  JCL(XX)  OPTION
*                ALIAS : F(DD/MM/YY)  T(DD/MM/YY)  JOB(XX)
*                                                  J(XX)
* WHERE : DAY(DD/MM/YY) INDICATE A PARTICULAR DATE SELECTION, IF
* -------      NOT SPECIFIED IT MEANS YESTERDAY DATE.
*         FROM(DD/MM/YY) AND TO(DD/MM/YY) INDICATE A RANGE OF DATES
*              (RESPECTIVELY THE STARTING AND ENDING DATE), WHICH
*              MUST FALL IN THE SAME MONTH.
*              IF THE ENDING DATE IS NOT SUPPLIED IT MEANS THE END
*              OF THE STARTING DATE MONTH OR THE YESTERDAY DATE WHEN
*              THIS IS LOWER.
*         JCL(XX) IS THE TWO CHARACTERS SUFFIX TO FORM THE MEMBER NAME
*              "IMSLOG.." (DEFAULT IS 00).
*         OPTION MAY ONE OF THE FOLLOWING KEYWORDS :
*                   MSG OR LIST (ALIAS M OR L)
*              OR : NOMSG OR NOLIST (ALIAS N)
*              WHICH ALLOWS YOU TO ACCEPT/SUPPRESS ALL MESSAGES.
* REMARKS : 1. A "IMSLDS" COMMAND WITH "FROM" AND "TO" DATES IDENTICAL
* --------     IS LIKE "IMSLDS DAY(DD/MM/YY)" COMMAND.
*           2. A "IMSLDS" COMMAND WITH ONLY THE "FROM(DD/MM/YY)" DATE
*              WHICH MATCHES THE LAST DAY OF THE MONTH IS ALSO LIKE
*              A "IMSLDS DAY(DD/MM/YY)" COMMAND.
*
* COMPLETION CODES :     0 = NORMAL TERMINATION.
* ==================    16 = A SEVERE ERROR HAS BEEN DETECTED.
*
* TSO CLIST :  WHEN RUNNING IN A TSO CLIST ENVIRONMENT, A VARIABLE
* ===========  NAMED "EUGENDS" WILL CONTAIN THE NAME OF THE JCL
*              GENERATED DATA-SET.
*
* AUTHOR :     MOINIL P.A. - COMPUTING CENTRE
* ========                   J.R.C. - ISPRA ESTABLISHMENT
*                            21020 ISPRA (VA), ITALY
         EJECT
        $DEFREG
        $XENT  BASE=R12
         ST    R1,APARM
         B     BEGIN
         SPACE 1
         AIF   ('&SYSPARM' NE '').OK
        MNOTE  8,' JCL SKELETONS LIBRARY NAME MISSING * * * * * * * * '
.OK      ANOP
RPLMEM   DC    CL44'&SYSPARM '
         EJECT
BEGIN   @CALL  XINIT,ERR=LEAVE
        @CALL  XGTSKL,ERR=LEAVE
        @CALL  XIDCAMS,ERR=LEAVE
        @CALL  XANALO,ERR=LEAVE
         TM    RUNSW,SWSYS         SYSTEM TASK?
         BO    DOSBM               YES
        @CALL  XGENER
         B     LEAVE
DOSBM   @CALL  XSUBMIT
LEAVE    LR    R10,R15
        @CALL  XEXIT
         SPACE 1
        $XRET  CC=(R15)
         EJECT
*------- COMMON DYNAMIC FAILURE MESSAGE ROUTINE
*              R1 - DYNAM OPERATION NAME ('ALL.' OR 'FREE')
*              R6 - DD-NAME POINTER
*              R8 - LINK REGISTER
         SPACE 1
DFMR     STCM  R1,B'1111',DFOPER
         MVC   DFNAME(L'DDNAME),0(R6)
         UNPK  DFERC(L'DFERC+1),RCODES(3)
         TR    DFERC(L'DFERC),TRTAB-X'F0'
         MVI   DFERC+L'DFERC,C''''
         UNPK  DFINFO(L'DFINFO+1),RCODES+2(3)
         TR    DFINFO(L'DFINFO),TRTAB-X'F0'
         MVI   DFINFO+L'DFINFO,C''''
         UNPK  DFRC15(L'DFRC15+1),RCODES+4(5)
         TR    DFRC15(L'DFRC15),TRTAB-X'F0'
         MVI   DFRC15+L'DFRC15,C''''
         LA    R1,DFMSG1
         BAS   R9,SMSG
         LA    R1,DFMSG2
         BAS   R9,SMSG
         BR    R8
         EJECT
*------- COMMON SEND MESSAGE ROUTINE
*              R1 - POINTER -> AL1(MESSAGE LENGTH),C'...MESSAGE...'
*              R9 - LINK REGISTER
         SPACE 1
SMSG     TM    REQSW,SWMSG         SUPPRESS ALL MESSAGES?
         BOR   R9                  YES
         XR    R15,R15
         IC    R15,0(R1)
         LTR   R15,R15
         BNPR  R9
         LH    R14,MSGAR
         SH    R14,=H'4'
         CLR   R15,R14
         BNH   *+L'*+2
         LR    R15,R14
         LR    R0,R15
         TM    RUNSW,SWTFG+SWTBG
         BNZ   SMSG1
         BCT   R15,*+L'*+6
         MVC   MSGAR+4(*-*),1(R1)
         EX    R15,*-6
        WTO    ,MF=(E,MSGAR)
         LH    R15,MSGAR
         SH    R15,=H'6'
         MVI   MSGAR+4,C' '
         EX    R15,*+L'*+2
         BR    R9
         MVC   MSGAR+5(*-*),MSGAR+4
SMSG1    BCT   R15,*+L'*+6
         MVC   MSGOUT(*-*),1(R1)
         EX    R15,*-6
         LA    R15,L'MSGCNTL+1(R15)
         STH   R15,MSGCNTL
         LA    R0,MSGWORK
         L     R1,ACPPL
         USING CPPL,R1
         L     R14,CPPLUPT
         L     R15,CPPLECT
         DROP  R1
         XC    PECB,PECB
         XC    PTPB(PTPBLEN),PTPB
         XC    IOPLZ(IOPLLEN),IOPLZ
         LA    R1,IOPLZ
        PUTLINE PARM=PTPB,UPT=(R14),ECT=(R15),ECB=PECB,                X
               TERMPUT=(EDIT,WAIT,NOHOLD,NOBREAK),                     X
               OUTPUT=((R0),TERM,SINGLE,DATA),                         X
               MF=(E,(1))
         XC    MSGCNTL,MSGCNTL
         MVI   MSGOUT,C' '
         MVC   MSGOUT+1(L'MSGOUT-1),MSGOUT
         BR    R9
         EJECT
*------- COMMON CONSTANTS AND WORK AREAS
         SPACE 1
DBLWRK   DC    D'0'
CHKWRK   DC    D'0'
YESWRK   DC    D'0'
DYNPLS  $DYNALL ,RCODES,MF=L
RCODES   DC    2F'0'               DYN. ALL. RETURN CODES
APARM    DC    A(*-*)
ATIOT    DC    A(*-*)
ACOMM    DC    A(*-*)
ATSO     DC    A(*-*)
APSCB    DC    A(*-*)
ACPPL    DC    A(*-*)
DALIST   DS    0A
DAGSKL   DC    A(*-*)
DAIDIN   DC    A(*-*)
DAIDOUT  DC    A(*-*)
DAGJCL   DC    A(*-*)
NDW      EQU   (*-DALIST)/L'DALIST      NUMBER OF DYN.ALL. AREAS
TDW      EQU   (((NDW*DYNLGTH)+7)/8)*8  TOTAL GETMAIN AREA LENGTH
LDYNW    DC    A(TDW)              DYN.ALL. TOTAL LENGTH
SDYNW    DC    A(*-*)              DYN.ALL. START ADDRESS
SKW      EQU   (((256*72)+7)/8)*8  TOTAL GETMAIN AREA LENGTH
LSKLW    DC    A(SKW)              JCL SKELETON TOTAL LENGTH
SSKLW    DC    A(*-*)              JCL SKELETON START ADDR. (JOB CARD)
SKLJS    DC    A(*-*)              START WITHOUT JOB CARD
SKLJE    DC    A(*-*)              LAST JCL CARD
SKLJI    DC    A(*-*)              INSERT TYPRUN= CARD (JOB CARD)
LVECT    DC    A(TVT)              ONE VECTOR TOTAL LENGTH
SVECT    DC    A(*-*)              FIRST VECTOR ADDRESS (SEE VTDSECT)
CVECT    DC    A(*-*)              CURRENT VECTOR ADDRESS
OPTIDC   DC    H'0'
DNMIDC   DC    Y(DNML)
         DC    4XL8'0'
DDI      DC    CL8'IDCIN'
DDO      DC    CL8'IDCOUT'
DNML     EQU   (*-DNMIDC)-L'DNMIDC
DDP      DC    CL8'SYSPDS'
TRTAB    DC    CL16'0123456789ABCDEF'
SBNAME   DC    CL8' '
DDG      DC    CL8'GENJCL '
USID     DC    CL8' '
MBNME    DC    CL8'IMSLOG00'
YDAY     DC    CL5' '              YYDDD
SDAY     DC    CL5' '              YYDDD
EDAY     DC    CL5' '              YYDDD
DDAY     DC    CL6' '              MMDDYY
FDAY     DC    CL6' '              YYMMDD
TDAY     DC    CL6' '              YYMMDD
MONTH    DC    CL4' '              YYMM
USIDL    DC    XL1'0'
RUNSW    DC    XL1'0'
SWSYS    EQU   X'80'               SYSTEM TASK RUNNING
SWTFG    EQU   X'40'               TSO FOREGROUND RUNNING
SWTBG    EQU   X'20'               TSO BACKGROUND RUNNING
REQSW    DC    XL1'0'
SWMSG    EQU   X'80'               NO MSG OPTION (TSO COMMAND)
SWOLD    EQU   X'08'               MONTH LOG DATA-SET EXIST
SWCPY    EQU   X'02'               SUBMIT JCL OPTION COPY
SWSCN    EQU   X'01'               SUBMIT JCL OPTION SCAN
MANSW    DC    XL1'0'
SWDAY    EQU   X'80'               DAY LEVEL NAME MANDATORY
SWMON    EQU   X'40'               MONTH LEVEL NAME MANDATORY
         SPACE 1
MSGAR   WTO    '                                                       1
                                      ',ROUTCDE=11,DESC=7,MF=L
PTPB    PUTLINE MF=L
PTPBLEN  EQU   *-PTPB
         DS    0F                  I-O PARM LIST FOR PUTLINE
IOPLZ    DS    (IOPLLEN)X
PECB     DS    F
MSGWORK  DS    0CL82               PUTLINE WORK USE
MSGCNTL  DS    F                   CONTROL WORD FOR PUTLINE
MSGOUT   DS    CL78                PUTLINE TEXT
         SPACE 1
VARDATA  DC    CL44' '
         SPACE 1
DFMSG1   DC    AL1(DFMSG1L),C' -> DYNAMIC '
DFOPER   DC    CL4' ',C' ('
DFNAME   DC    CL8' ',C') FAILED : R15 = X'''
DFRC15   DC    CL8' ',C''' '
DFMSG1L  EQU   *-(DFMSG1+1)
DFMSG2   DC    AL1(DFMSG2L),CL28' ',C'ERC = X'''
DFERC    DC    CL4' ',C''', INFO = X'''
DFINFO   DC    CL4' ',C''' '
DFMSG2L  EQU   *-(DFMSG2+1)
MSERL    DC    AL1(MSERLL),C' => EU-S02A UNMATCHED '
         DC    C'"//LOG...    DD DSN=?1...,DISP=" <-DD-CARD '
MSERLL   EQU   *-(MSERL+1)
MSERS    DC    AL1(MSERSL),C' => EU-S03A CANNOT SPLIT '
         DC    C'"//LOG...    DD DSN=?1...,DISP=" <-DD-CARD '
MSERSL   EQU   *-(MSERS+1)
MSERO    DC    AL1(MSEROL),C' => EU-S04A UNMATCHED '
         DC    C'"//LOGOUT    DD DSN=?2...,DISP=..., " <-DD-CARD '
MSEROL   EQU   *-(MSERO+1)
MSERX    DC    AL1(MSERXL),C' => EU-S05A 44 CHARACTERS LONG '
         DC    C'"?1... " IS MANDATORY '
MSERXL   EQU   *-(MSERX+1)
         SPACE 1
         DC    AL1(L'TEXT)
TEXT     DC    CL80' '
LLN      DC    AL1(*-*)
LINE     DC    CL133' '
DAYMNL   DC    AL1(*-*)
DAYMN    DC    CL44' '
LOGMNL   DC    AL1(*-*)
LOGMN    DC    CL44' '
         SPACE 1
*------- MAIN LITERAL POOL
         SPACE 1
        LTORG
         EJECT
XINIT   @ENTER
         USING PSA,R0
         L     R1,PSAAOLD          GET CURRENT USER-ID (RACF)
         DROP  R0
         USING ASCB,R1
         L     R2,ASCBASXB
         DROP  R1
         USING ASXB,R2
         L     R1,ASXBSENV
         DROP  R2
         USING ACEE,R1
         MVC   USID,ACEEUSRI       GET USER ID
         MVC   USIDL,ACEEUSRL      GET USER ID LENGTH
         DROP  R1
         XC    ATIOT(L'ATIOT+L'ACOMM+L'ATSO+L'APSCB),ATIOT
        EXTRACT ATIOT,'S',FIELDS=(TIOT,COMM,TSO,PSB)
         L     R1,ACOMM            COMMUNICATION AREA ADDRESS
         L     R2,4(R1)            CIB ADDRESS
         LA    R2,0(R2)
         LTR   R2,R2               CURRENT CIB SET UP?
         BZ    *+L'*+12            NO
         USING CIBDSECT,R2
         CLI   CIBVERB,CIBSTART    START COMMAND?
         BNE   *+L'*+4             NO
         OI    RUNSW,SWSYS         YES, SYSTEM TASK
         DROP  R2
         L     R1,ATIOT
         USING TIODSECT,R1
         MVC   SBNAME,TIOCNJOB
         DROP  R1
         ICM   R2,B'1111',APSCB
         BZ    PCALL               IF 0 = BATCH-EXEC
         L     R1,ATSO
         TM    0(R1),X'80'
         BZ    *+L'*+8             IF 0 = TSO-BACKGROUND
         OI    RUNSW,SWTFG
         B     *+L'*+4
         OI    RUNSW,SWTBG
         L     R3,APARM            RESTORE PARM. ADDRESS
         TM    0(R3),X'80'         CALL PARM. LIST?
         BO    PCALL               YES, CALL UNDER TSO
         USING CPPL,R3             SET CPPL ADDRESSABILITY
         USING PSCB,R2
         CLC   PSCBUPT,CPPLUPT     CPPL+4 = UPT ADDRESS?
         BNE   *+L'*+10            NO
         DROP  R2
         CLC   APSCB(L'APSCB),CPPLPSCB  CPPL+8 = PSCB ADDRESS?
         BE    OKSCN               YES, TSO COMMAND
         LR    R1,R3
         USING IKJEBECA,R1
         L     R3,CAPTTMP          CPPL ADDRESS
         DROP  R1
         CLC   APSCB(L'APSCB),CPPLPSCB  CPPL+8 = PSCB ADDRESS?
         BNE   ERROR0              NO, NOT TSO SUB-COMMAND
OKSCN    ST    R3,ACPPL            RETAIN CPPL ADDRESS
         LA    R1,MYPPL            SET PARSE PARAMETER LIST (PPL)
         USING PPL,R1
         MVC   PPLUPT,CPPLUPT
         MVC   PPLECT,CPPLECT
         LA    R0,MYECB
         ST    R0,PPLECB
         MVC   PPLPCL,=A(PARMLST)
         LA    R0,MYANS
         ST    R0,PPLANS
         MVC   PPLCBUF,CPPLCBUF
         DROP  R1,R3
        CALLTSSR EP=IKJPARS,MF=(E,(1))
         LR    R10,R15
         B     *+L'*(R15)          BRANCH ON RETURNED CODE
         B     PARSOK               0 - SUCCESSFULL
         B     ERROR1               4 - UNABLE TO PROMPT
         B     EXINI                8 - USER ATTENTION OCCURED
         B     ERROR2              12 - PROGRAM BUG
         B     ERROR3              16 - SPACE UNAVAILABLE IN REGION
         B     ERROR4              20 - INVALID PARM
         B     ERROR5              24 - PARM. CONFLICT
         B     ERROR6              28 - TERMINAL DISCONNECTED
PARSOK   L     R2,MYANS            CHECK ANSWER ADDRESS
         LA    R2,0(R2)
         LTR   R2,R2
         BZ    ERROR7
         USING IKJPARMD,R2
         MVC   DDAY,=CL6' '        SET NONE
         CLI   PDID+1,0            DAY SPECIFIED?
         BE    NOIDX               NO
         TM    SDID+6,X'80'        VALUE PRESENT?
         BZ    NOIDX               NO
         LH    R14,SDID+4          GET LENGTH
         LTR   R14,R14             LENGTH ZERO?
         BNP   NOIDX               YES
         L     R15,SDID            POINT TO VALUE
         CLC   0(4,R15),=CL4'NONE' DEFAULT?
         BE    NOIDX               YES
         MVC   DDAY(2),3(R15)      MMDDYY
         MVC   DDAY+2(2),0(R15)
         MVC   DDAY+4(2),6(R15)
NOIDX    MVC   FDAY,=CL6' '        SET NONE
         CLI   PDIF+1,0            FROM SPECIFIED?
         BE    NOIFX               NO
         TM    SDIF+6,X'80'        VALUE PRESENT?
         BZ    NOIFX               NO
         LH    R14,SDIF+4          GET LENGTH
         LTR   R14,R14             LENGTH ZERO?
         BNP   NOIFX               YES
         L     R15,SDIF            POINT TO VALUE
         CLC   0(4,R15),=CL4'NONE' DEFAULT?
         BE    NOIFX               YES
         MVC   FDAY+4(2),0(R15)    SET YYMMDD
         MVC   FDAY+2(2),3(R15)
         MVC   FDAY(2),6(R15)
NOIFX    MVC   TDAY,=CL6' '        SET NONE
         CLI   PDIT+1,0            TO SPECIFIED?
         BE    NOITX               NO
         TM    SDIT+6,X'80'        VALUE PRESENT?
         BZ    NOITX               NO
         LH    R14,SDIT+4          GET LENGTH
         LTR   R14,R14             LENGTH ZERO?
         BNP   NOITX               YES
         L     R15,SDIT            POINT TO VALUE
         CLC   0(4,R15),=CL4'NONE' DEFAULT?
         BE    NOITX               YES
         MVC   TDAY+4(2),0(R15)    SET YYMMDD
         MVC   TDAY+2(2),3(R15)
         MVC   TDAY(2),6(R15)
NOITX    CLI   PDIJ+1,0            JCL SPECIFIED?
         BE    NOIJX               NO
         TM    SDIJ+6,X'80'        VALUE PRESENT?
         BZ    NOIJX               NO
         LH    R14,SDIJ+4          GET LENGTH
         LTR   R14,R14             LENGTH ZERO?
         BNP   NOIJX               YES
         L     R15,SDIJ            POINT TO VALUE
         MVC   MBNME+6(2),0(R15)   SET XX
NOIJX    LH    R1,PDOP             MSG/NOMSG OPTION
         LTR   R1,R1
         BNP   NOOPT
         BCT   R1,*+L'*+4
         B     NOOPT
         OI    REQSW,SWMSG
         DROP  R2
NOOPT   IKJRLSA MYANS
         CLI   DDAY,C' '           DAY SPECIFIED?
         BE    CHKRG               NO
         CLI   FDAY,C' '
         BE    *+L'*+8
         LA    R1,OCMSG
         B     EXERX
         CLI   TDAY,C' '
         BE    *+L'*+8
         LA    R1,TOMSG
         B     EXERX
         MVC   DBLWRK(L'DDAY),DDAY VALIDATE DAY DATE
         LA    R0,DBLWRK
         LA    R15,SDAY
         BAS   R8,GTSDT
         B     LSTCK               +0 - OK
         MVC   S1RC(L'S1RC),DBLWRK+1 +4 - ERROR
         LA    R1,S1MSG
         B     EXERS
CHKRG    CLI   FDAY,C' '           FROM DATE SPECIFIED?
         BNE   *+L'*+16            YES
         CLI   TDAY,C' '           NO, TO DATE SPECIFIED?
         BE    GDFLT               NO, YESTERDAY
         LA    R1,FRMSG            YES
         B     EXERX
         MVC   DBLWRK(4),FDAY+2    VALIDATE FROM DATE
         MVC   DBLWRK+4(2),FDAY
         LA    R0,DBLWRK
         LA    R15,SDAY
         BAS   R8,GTSDT
         B     *+L'*+14            +0 - OK
         MVC   S2RC(L'S2RC),DBLWRK+1 +4 - ERROR
         LA    R1,S2MSG
         B     EXERS
         LA    R0,YESWRK           HERE GET TODAY DATE
         XR    R15,R15
         BAS   R8,GTGDT
         B     *+L'*+4             +0 - OK
         B     G1ERR               +4 - ERROR
         LA    R0,YESWRK           NOW GET YESTERDAY DATE
         LA    R15,YDAY
         BAS   R8,GTSDT
         B     *+L'*+4             +0 - OK
         B     G2ERR               +4 - ERROR
         PACK  DBLWRK,YDAY+2(3)
         CVB   R2,DBLWRK
         PACK  DBLWRK,YDAY(2)
         CVB   R3,DBLWRK
GTYT1    BCT   R2,GTYT2
         LTR   R3,R3
         BP    *+L'*+4
         LA    R3,100
         BCTR  R3,0
         CVD   R3,DBLWRK
         UNPK  DBLWRK(3),DBLWRK+6(2)
         OI    DBLWRK+2,C'0'
         MVC   YDAY(2),DBLWRK+1
         LA    R2,366
GTYT2    CVD   R2,DBLWRK
         UNPK  YDAY+2(3),DBLWRK+L'DBLWRK-2(2)
         OI    YDAY+4,C'0'
         LA    R0,YESWRK
         LA    R15,YDAY
         BAS   R8,GTGDT
         B     *+L'*+14            +0 - OK
         CLC   YDAY+2(3),=CL3'366' +4 - ERROR
         BE    GTYT1
         B     G3ERR
         ICM   R1,B'1111',YESWRK
         MVC   YESWRK(2),YESWRK+4
         STCM  R1,B'1111',YESWRK+2
         CLC   FDAY(L'FDAY),YESWRK VALID FROM DATE?
         BNH   *+L'*+8             YES
         LA    R1,FUMSG
         B     EXERX
         CLI   TDAY,C' '
         BNE   CHKTD
         MVC   CHKWRK(2),FDAY+2    GET LAST DAY OF MONTH
         MVC   CHKWRK+4(2),FDAY
         MVC   DBLWRK+L'DBLWRK-2(2),=PL2'+31'
GTLDL    UNPK  DBLWRK(3),DBLWRK+L'DBLWRK-2(2)
         OI    DBLWRK+2,C'0'
         MVC   CHKWRK+2(2),DBLWRK+1
         LA    R0,CHKWRK
         LA    R15,EDAY
         BAS   R8,GTSDT
         B     CHKYD               +0 - OK
         CLC   CHKWRK+2(2),FDAY+4  +4 - ERROR, MATCH FROM DATE?
         BE    OKCHK               YES, IT IS LIKE DAY DATE
         BNH   *+L'*+16
         PACK  DBLWRK,CHKWRK+2(2)
         SP    DBLWRK+L'DBLWRK-2(2),=PL1'+1'
         B     GTLDL
         MVC   S3RC(L'S3RC),DBLWRK+1
         LA    R1,S3MSG
         B     EXERS
CHKYD    ICM   R1,B'1111',CHKWRK
         MVC   CHKWRK(2),CHKWRK+4
         STCM  R1,B'1111',CHKWRK+2
         CLC   CHKWRK(L'FDAY),YESWRK VALID DATE?
         BNH   OKCHK               YES
         MVC   EDAY,YDAY           TO DATE = YESTERDAY
OKCHK    MVC   MONTH(L'MONTH),FDAY
         B     GTDWS
CHKTD    CLC   FDAY(4),TDAY        SAME MONTH?
         BNE   ERRMN               NO
         CLC   FDAY,TDAY           CORRECTLY SPECIFIED?
         BH    ERDTE               NO
         BE    OKCHK               SAME DATE = ONLY ONE DATE
         CLC   TDAY(L'TDAY),YESWRK VALID TO DATE?
         BNH   *+L'*+8             YES
         LA    R1,TUMSG
         B     EXERX
         MVC   DBLWRK(4),TDAY+2    VALIDATE TO DATE
         MVC   DBLWRK+4(2),TDAY
         LA    R0,DBLWRK
         LA    R15,EDAY
         BAS   R8,GTSDT
         B     OKCHK               +0 - OK
         MVC   S4RC(L'S4RC),DBLWRK+1 +4 - ERROR
         LA    R1,S4MSG
         B     EXERS
ERRMN    LA    R1,MNMSG
         B     EXERX
ERDTE    LA    R1,DTMSG
         B     EXERX
ERROR0   LA    R1,ERRMS0
         B     EXERX
ERROR1   LA    R1,ERRMS1
         B     EXERS
ERROR2   LA    R1,ERRMS2
         B     EXERS
ERROR3   LA    R1,ERRMS3
         B     EXERS
ERROR4   LA    R1,ERRMS4
         B     EXERS
ERROR5   LA    R1,ERRMS5
         B     EXERS
ERROR6   LA    R1,ERRMS6
         B     EXERS
ERROR7   LA    R1,ERRMS7
         B     EXERX
PCALL    L     R1,APARM            RESTORE PARM. ADDRESS
         L     R1,0(R1)            PARM. FIELD ADDRESS
         LH    R4,0(R1)            PARM. FIELD LENGTH
         LTR   R4,R4
         BNP   PAEND               NO PARM. FIELD
         LA    R2,2(R1)            SET START OF PARM. FIELD TEXT
         LA    R4,1(R4,R1)         END OF PARM. FIELD TEXT
PANW     CLI   SDAY,C' '
         BNE   PA2                 NOT FIRST TIME
         CLI   0(R2),C'D'
         BNE   PA2                 NOT DAY= OR D= KEYWORD
         LA    R1,1(R2)
         CLR   R1,R4
         BH    PARMERR             END OF PARM. FIELD TEXT
         CLI   0(R1),C'='
         BE    PA1
         LA    R0,2(R1)
         CLR   R0,R4
         BH    PARMERR             END OF PARM. FIELD TEXT
         CLC   0(3,R1),=CL3'AY='
         BNE   PARMERR             NOT DAY= KEYWORD
         LA    R2,2(R2)
PA1      LA    R2,2(R2)            START OF OPERAND ANALYSIS
         CLR   R2,R4
         BH    PAEND               NULL OPERAND
         CLI   0(R2),C','
         BE    PASK                NULL OPERAND
         LA    R5,SDAY
         LA    R6,L'SDAY           OPERAND LENGTH CONTROL
PA1A     CLI   0(R2),C'0'
         BL    PARMERR             NOT NUMERIC
         CLI   0(R2),C'9'
         BH    PARMERR             NOT NUMERIC
         MVC   0(1,R5),0(R2)       MOVE OPERAND TO DESTINATION FIELD
         LA    R2,1(R2)            INCREMENT POINTERS
         LA    R5,1(R5)
         CLR   R2,R4
         BH    *+L'*+8             END OF PARM. FIELD TEXT
         BCT   R6,PA1A             TEST OPERAND VALIDITY-LENGTH
         B     PATS                SEPARATOR
         BCT   R6,PARMERR
         B     PAEND
PA2      CLC   MBNME+6(2),=CL2'00'
         BNE   PA3                 NOT FIRST TIME
         CLI   0(R2),C'J'
         BNE   PA3                 NOT JCL=, JOB= OR J= KEYWORD
         LA    R1,1(R2)
         CLR   R1,R4
         BH    PARMERR             END OF PARM. FIELD TEXT
         CLI   0(R1),C'='
         BE    PA2A
         LA    R0,2(R1)
         CLR   R0,R4
         BH    PARMERR             END OF PARM. FIELD TEXT
         CLC   0(3,R1),=CL3'CL='
         BE    *+L'*+10
         CLC   0(3,R1),=CL3'OB='
         BNE   PARMERR             NOT JCL= OR JOB= KEYWORD
         LA    R2,2(R2)
PA2A     LA    R2,2(R2)            START OF OPERAND ANALYSIS
         CLR   R2,R4
         BH    PAEND               NULL OPERAND
         CLI   0(R2),C','
         BE    PASK                NULL OPERAND
         LA    R5,MBNME+6
         LA    R6,2                OPERAND LENGTH CONTROL
PA2B     CLI   0(R2),C' '
         BE    PARMERR             REJECT BLANK
         MVC   0(1,R5),0(R2)       MOVE OPERAND TO DESTINATION FIELD
         LA    R2,1(R2)            INCREMENT POINTERS
         LA    R5,1(R5)
         CLR   R2,R4
         BH    *+L'*+8             END OF PARM. FIELD TEXT
         BCT   R6,PA2B             TEST OPERAND VALIDITY-LENGTH
         B     PATS                SEPARATOR
         BCT   R6,PARMERR
         B     PAEND
PA3      TM    RUNSW,SWSYS         SYSTEM TASK?
         BZ    PATS                NO
         CLI   0(R2),C'C'
         BNE   PA4                 NOT C(OPY) KEYWORD
         LA    R2,1(R2)
         CLR   R2,R4
         BNH   *+L'*+8
         OI    REQSW,SWCPY
         B     PAEND               END OF PARM. FIELD TEXT
         LA    R1,2(R2)
         CLR   R1,R4
         BH    PARMERR             END OF PARM. FIELD TEXT
         CLC   0(3,R2),=CL3'OPY'
         BNE   PARMERR             NOT COPY KEYWORD
         OI    REQSW,SWCPY
         LA    R2,3(R2)
         B     PANX
PA4      CLI   0(R2),C'S'
         BNE   PATS                NOT S(CAN) KEYWORD
         LA    R2,1(R2)
         CLR   R2,R4
         BNH   *+L'*+8
         OI    REQSW,SWSCN
         B     PAEND               END OF PARM. FIELD TEXT
         LA    R1,2(R2)
         CLR   R1,R4
         BH    PARMERR             END OF PARM. FIELD TEXT
         CLC   0(3,R2),=CL3'CAN'
         BNE   PARMERR             NOT SCAN KEYWORD
         OI    REQSW,SWSCN
         LA    R2,3(R2)
PANX     CLR   R2,R4
         BH    PAEND               END OF PARM. FIELD TEXT
PATS     CLI   0(R2),C','
         BNE   PARMERR             NOT SEPARATOR
PASK     LA    R2,1(R2)            INCREMENT POINTER
         CLR   R2,R4
         BH    PAEND               END OF PARM. FIELD TEXT
         CLI   0(R2),C','
         BE    PASK                SEPARATOR AGAIN
         B     PANW                GO TO SEE ANY KEYWORD
PARMERR  LA    R1,PAMSG
         B     EXERX
PAEND    CLC   SDAY+2(3),=CL3'366'
         BNH   *+L'*+8
         LA    R1,PRMSG
         B     EXERX
         CLC   SDAY(L'SDAY),=CL6' ' SERIAL DAY DEFINED?
         BE    GDFLT               NO
         LA    R0,DBLWRK
         LA    R15,SDAY
         BAS   R8,GTGDT
         B     LSTCK               +0 - OK
         MVC   VDRC(L'VDRC),DBLWRK+1 +4 - ERROR
         LA    R1,VDMSG
         B     EXERS
GDFLT    LA    R0,DBLWRK           GET TODAY DATE
         XR    R15,R15
         BAS   R8,GTGDT
         B     *+L'*+4             +0 - OK
         B     G1ERR               +4 - ERROR
         LA    R0,DBLWRK           NOW GET YESTERDAY DATE