VCRZ     TITLE 'VCOREZAP - VIRTUAL CORE ZAP.'
        PRINT  OFF
         MACRO
&NAME   @INIT  &LABEL
&NAME   $HEDIT &LABEL
         USING &NAME,R10           LOCAL ADDRESSABILITY
         MEND
         MACRO
&DUML   @END   &DUMA
        LTORG
         SPACE 1
         DROP  R10                 END OF LOCAL ADDRESSABILITY
         MEND
         MACRO
&LABEL  @SEND  &A,&OP=L
         AIF   ('&OP' EQ 'L').A
         AIF   ('&OP' EQ 'LA').B
         AIF   ('&OP' EQ 'NONE').C
        MNOTE  4,'*** INVALID OP= SPECIFIED, OP=L ASSUMED.'
.A       ANOP
&LABEL   L     R1,=A(&A)
         AGO   .Z
.B       ANOP
&LABEL   LA    R1,&A
.Z       BAS   R8,SEND
         MEXIT
.C       ANOP
&LABEL   BAS   R8,SEND
         MEND
         MACRO
&LABEL  @WL    &N
         LCLA  &Z
&Z       SETA  &N
         AIF   (&Z LT 1).A
         AIF   (&Z LE 24).B
&Z       SETA  24
         AGO   .B
.A       ANOP
&Z       SETA  1
.B       ANOP
&LABEL  $FS    SF=(PROT),TEXT=(' ',79),MF=L
.C       AIF   (&Z EQ 1).D
        $FS    SF=(PROT),TEXT=(' ',79),MF=L
&Z       SETA  &Z-1
         AGO   .C
.D       MEND
         MACRO
&LABEL  @WTO   &TEXT
&LABEL  WTO    &TEXT,MF=L
         MEND
        PRINT  ON
         SPACE 1
VCOREZAP START 0
         SPACE 1
* PURPOSE :    THIS MODULE ALLOWS THE ALTERATION OR DISPLAY OF ANY
* ---------    VIRTUAL STORAGE LOCATIONS IN THE NUCLEUS, CSA, ADDRESS
*              SPACES (NOT SWAP-OUT), ETC...
*              NOTE : IT DOES'NT REPLACE THE 'INCORZAP' PROGRAM TO
*                     MODIFY THE LPA WHICH IS STORE PROTECTED.
*
* CBT ORIGIN : BASE IDEA FROM CBT TAPE FEB 85, FILE 056.
* ------------ ENLARGED BY : MOINIL P.A.
*                            COMPUTING CENTRE
*                            J.R.C. - ISPRA ESTABLISHMENT
*                            21020 ISPRA (VA), ITALY
*
* ADDS/CHANGES : - CHECK CALLER AUTHORITY AND ENVIRONMENT.
* -------------- - EXTENDED COMMANDS LANGUAGE TO USE LABELS FACILITY.
*                - ADDRESS SPACE COMMANDS (CROSS MEMORY).
*                - USER-AREAS COMMANDS.
*                - FULL SCREEN DISPLAY.
*                - HARDCOPY FUNCTION.
*                - DSECTS AVAILABILITY (PRE-REQUISITE GDTUTIL/DTUR).
*                - SEGMENT-TABLE PROCESSING USE WITH "FIND FULL".
*
***********************************************************************
* NOTE :       A DEFAULT DATA-SET NAME FOR DSECTS TABLES IS DEFINED   *
* ------       IN THE ASSEMBLY FIELD 'DRFDSN'.                        *
***********************************************************************
         EJECT
* - - - - - - - - - - - - - - - - - - - - - - - - - - - - - - - - - - *
*        AUTHORITY LEVELS DEFINITIONS.                                *
* - - - - - - - - - - - - - - - - - - - - - - - - - - - - - - - - - - *
         SPACE 1
*                             X-M = CROSS MEMORY REFERENCE.
LV15     EQU   15             FULL DISPLAY/STORE/TEST LEVEL.
LV10     EQU   10 - 14        FULL DISPLAY AND STORE WITHOUT X-M LEVEL.
LV5      EQU   5 - 9          FULL DISPLAY LEVEL.
LV1      EQU   1 - 4          ONLY DISPLAY WITHOUT X-M LEVEL.
         SPACE 1
        $MDL@IX
         SPACE 2
*        TABLES DIMENSIONS.
*        ------------------
         SPACE 1
NASSTE   EQU   100            MAX. NO. OF ASSIGNED LABELS
NFIXTE   EQU   50             MAX. NO. OF PREDEFINED LABELS
NASNTE   EQU   300            MAX. NO. OF AS-NAMES/AS-ID'S.
NTKWAS   EQU   10             MAX. NO. OF TANKS USER-AREAS (MAX=999).
         EJECT
* VIRTUAL STORAGE COMMANDS AT DISPOSAL :
* --------------------------------------
*
*        D NNNN :
*              TO DISPLAY 16 HEX BYTES STARTING AT LOCATION NNNN.
*              JUST ENTER OR TYPE ONLY D TO DISPLAY 16 HEX BYTES
*              STARTING AT THE CURRENT OR +16 ADDRESS POINTER
*              (CONTINUE THE DISPLAY OF DATA). THIS POINTER IS
*              UPDATED BY ANY D, S, F AND A COMMANDS. ENTER + OR
*              - DECIMAL 1 UP TO 999 TO DISPLAY FORWARD/BACKWARD
*              FROM CURRENT LOCATION POINTER.'
*              NNNN MAY BE :
*              A LABEL (1 TO 8 CHARACTERS),
*                OR AN HEX ADDRESS (1 TO 8 HEX DIGITS PRECEEDED BY
*                   A PERIOD, WHICH MAY BE OMITTED IF THE FIRST ONE
*                   IS A NUMERIC 0-9),
*                OR A FIELD-NAME AND DSECT-NAME (SEPARATED BY A
*                   SLASH AND GIVEN IN THIS ORDER, WHERE DSECT-NAME
*                   MUST ALSO EXIST AS LABEL),
*              FOLLOWED BY AN EVENTUAL DISPLACEMENT EXPRESSED AS +
*              OR - DDDD (ANOTHER LABEL OR HEX VALUE),
*                   OR A FIELD-NAME AND DSECT-NAME (SEPARATED BY A
*                      SLASH AND GIVEN IN THIS ORDER).
*
*        S NNNN HHHH,... OR @N :
*              TO STORE DATA BYTES (HHHH,...) OR THE CONTENTS OF A
*              USER-AREA (@N) STARTING AT NNNN LOCATION (SEE AT
*              PREVIOUS D NNNN COMMAND FOR HOW TO SPECIFY IT).
*              HHHH ARE PAIRS OF HEX DIGITS SEPARATED BY BLANKS OR
*              COMMAS AS DESIRED. @N INDICATE WHICH USER-AREA TO USE.
*              AN * IN PLACE OF NNNN CONTINUE TO STORE IN SEQUENCE.
*
*        F '...' OR HHHH... :
*              TO FIND THE NEXT FIRST OCCURRENCE OF A CHARACTER
*              (1 TO 16 CHARACTERS) OR HEXADECIMAL (2 TO 32 HEX
*              DIGITS) STRING FROM THE CURRENT LOCATION POINTER
*              UNTIL THE NEXT END OF PAGE BOUNDARY ADDRESS (4K
*              BOUNDARY ADDRESS). JUST ENTER OR TYPE ONLY F TO
*              CONTINUE THE SEARCH IN THE SUCCESSIVE 4K.
*              'FULL' KEYWORD : MAY BE SPECIFIED BEFORE OR AFTER
*                     THE SEARCH STRING. IT ALLOWS TO SCAN THE
*                     ENTIRE ADDRESS SPACE, STARTING-ENDING AT
*                     THE CURRENT LOCATION POINTER.
*              NOTE : THE LAST 16 BYTES OF EVERY 4K PAGE SEARCH
*                     ARE NEVER TESTED FOR THE REQUESTED STRING
*                     (THEY ARE JUST DISPLAYED WITH THE ADVICE
*                     '<--NF'), BUT THEY ARE RETAINED AND USED
*                     WITH THE 4K SUCCESSIVE IMMEDIATE CHECK, SO
*                     SCAN OVER PAGES BOUNDARIES IS SUPPLIED.
         EJECT
* LABELS DEFINE COMMANDS AT DISPOSAL :
* ------------------------------------
*
*        A LLLL NNNN :
*              TO ASSIGN TO LABEL LLLL (1 TO 8 CHARACTERS) THE
*              SPECIFIED ADDRESS OR DISPLACEMENT VALUE NNNN (SEE AT
*              PREVIOUS D NNNN COMMAND FOR HOW TO SPECIFY IT).
*              IF NNNN IS OMITTED, THE LABEL LLLL IS ASSIGNED THE
*              CURRENT ADDRESS POINTER VALUE.
*
*        Z LLLL :
*              TO DELETE THE SPECIFIED LABEL LLLL REFERENCE.
*
*        L LLLL :
*              TO DISPLAY THE VALUE OF THE SPECIFIED LABEL OR
*              ALL THE LABELS STARTING BY THE CHARACTERS DEFINED
*              BY STRING LLLL. IF LLLL IS NOT SPECIFIED, ALL THE
*              EXISTING LABELS WILL BE LISTED.
*
*        I :   TO DISPLAY THE INTERNAL PREDEFINED LABELS.
*
* DSECT'S COMMANDS AT DISPOSAL :
* ------------------------------
*
*        B :   BROWSE ALL DSECTS NAMES IN THE CURRENT DATA-SET.
*
*        B DDDD :
*              BROWSE SEQUENTIALLY THE CONTENTS OF AN ENTIRE DSECT
*              (DDDD IS A DSECT-NAME).
*
*        B DDDD ... :
*              BROWSE INFORMATION FROM A DSECT (DDDD IS A DSECT-NAME).
*              THEN FOLLOWS ... WHICH MAY BE :
*              FFFF : A FIELD-NAME, OR
*              FFFF : A FLAG-NAME, OR
*              HHHH : A FIELD-DISPLACEMENT (HEX), OR
*              FFFF HH : A FIELD-NAME AND FLAG-VALUE (HEX).
*
*        Q :   DISPLAY HOW CORE STORAGE SPACE HAS GROWN.
*
*        Q * : RESTART THE CURRENT DSECT'S DATA-SET.
*
*        Q SSSS :
*              START A NEW DSECT'S DATA-SET (SSSS IS A DATA-SET NAME).
*              NOTE : Q * AND Q SSSS COMMANDS MAY BE USED TO FREE ALL
*                     CORE STORAGE SPACE AND START AGAIN WITH THE SAME
*                     OR ANOTHER DSECTS TABLES DATA-SET.
         EJECT
* USER-AREAS COMMANDS AT DISPOSAL :
* ---------------------------------
*
*        M @N :
*              SET AND RETAIN AS CURRENT THE USER-AREA NUMBER N.
*
*        M :   DISPLAY THE CURRENT USER-AREA.
*
*        M Z OR R :
*              RESET TO ZEROS (Z) OR BLANKS (R) THE CURRENT USER-AREA.
*
*        M HHHH,... OR '...' :
*              STORE DATA BYTES OR CHARACTERS STRING IN CURRENT
*              USER-AREA STARTING AT THE CURRENT LOCATION POINTER.
*              HHHH ARE PAIRS OF HEX DIGITS SEPARATED BY BLANKS OR
*              COMMAS AS DESIRED.
*
*        M + OR - XX :
*              MOVE THE LOCATION POINTER FORWARD (+) OR BACKWARD (-)
*              OF XX (HEX) DATA BYTES IN THE CURRENT USER-AREA.
*
*        M L XX :
*              SET USER-AREA TEXT DATA LENGTH TO XX (HEX).
*
* MISCELLANEOUS COMMANDS AT DISPOSAL :
* ------------------------------------
*
*        G TTT :
*              THIS COMMAND IS AVAILABLE ONLY IN FULL SCREEN MODE,
*              AND MAY BE USED TO INSERT IN THE INPUT AREA 1 UP TO
*              16 BYTES (TTT, DEFAULT IS 4) LOCATED AT THE CURRENT
*              POINTER (USEFULL TO THEN ASSIGN A LABEL OR STORE DATA
*              IN A USER-AREA).
*
*        P ON C(?) D(?) :
*              START HARDCOPY (CLASS/DESTINATION).
*
*        P OFF :
*              STOP HARDCOPY.
*
*        C ON/OFF :
*              TO ENABLE/DISABLE THE USE OF THE ADDRESS SPACE
*              COMMANDS.
*
*        Y :   DISPLAY CURRENT ADDRESS SPACE SEGMENT-TABLE.
         EJECT
* ADDRESS SPACE COMMANDS AT DISPOSAL :
* ------------------------------------
*
*        XT :  TO LOAD OR REFRESH THE AS-TABLE AND RESET THE
*              AS-ID MODE.
*
*        XA XXXX :
*              TO ACTIVATE THE AS-ID XXXX MODE FOR THE NEXT XD,
*              XS AND XF COMMANDS. XXXX MAY BE AN AS-NAME (1 TO
*              8 CHARACTERS) OR AN HEX AS-ID NUMBER (1 TO 4 HEX
*              DIGITS PRECEEDED BY A PERIOD, WHICH MAY BE OMITTED
*              IF THE FIRST ONE IS A NUMERIC 0-9).
*
*        XC :  TO CLEAR THE AS-TABLE AND RESET THE AS-ID MODE.
*
*        XR :  TO RESET THE AS-ID MODE.
*
*        XL XXXX :
*              TO DISPLAY THE VALUE OF THE SPECIFIED AS-NAME (1
*              TO 8 CHARACTERS), AS-ID NUMBER (1 TO 4 HEX DIGITS
*              PRECEEDED BY A PERIOD, WHICH MAY BE OMITTED IF THE
*              FIRST ONE IS A NUMERIC 0-9) OR ALL THE AS-NAMES
*              STARTING BY THE CHARACTERS DEFINED BY STRING XXXX.
*              IF XXXX IS NOT SPECIFIED, ALL THE AS-TABLE WILL BE
*              LISTED.
*
*        XD ..., XS ... AND XF ... :
*              TO DISPLAY, STORE AND FIND IN THE ACTIVE AS-ID.
*              SYNTAX AND PROCESSING ARE IDENTICAL TO D, S AND
*              F COMMANDS.
*
*        XG TTT :
*              THIS COMMAND IS AVAILABLE ONLY IN FULL SCREEN MODE,
*              AND HAS THE SAME FUNCTION AS G TTT COMMAND, BUT THE
*              BYTES ARE EXTRACTED FROM THE ACTIVE AS-ID.
         EJECT
* SPECIAL TEST COMMANDS AT DISPOSAL :
* ------------------------------------
*
*        T ON/OFF :
*              TO ENABLE/DISABLE THE ACCESS TO THE "VCOREZAP"
*              PROGRAM AND ARRAYS STORAGE (AVAILABLE ONLY WITH
*              "C OFF").
*
*        T L(INE)/S(CREEN) :
*              TO CHANGE THE DISPLAY MODE BETWEEN LINE AND FULL
*              SCREEN (ONLY FOR SCREEN TERMINAL OBVIOUSLY).
*
*        T Y(ES)/N(O) :
*              TO ENABLE/DISABLE THE SEGMENT-TABLE PROCESSING USE
*              WHEN "FIND FULL" COMMAND.
*
* HELPS COMMANDS AT DISPOSAL :
* ----------------------------
*
*        H :   TO HAVE THE VIRTUAL STORAGE COMMANDS SUMMARY.
*
*        HL :  TO HAVE THE LABEL'S AND DSECT'S COMMANDS SUMMARY.
*
*        HM :  TO HAVE THE MISCELLANEOUS COMMANDS SUMMARY.
*
*        XH :  TO HAVE THE ADDRESS SPACE COMMANDS SUMMARY.
*
* AT ANY TIME, ENTER :       ?     TO OBTAIN INFO STATUS.
* --------------------       E     TO TERMINATE.
         EJECT
        $DEFREG
KB       EQU   1024                1 K-BYTES
         SPACE 1
VCOREZAP AMODE 24
VCOREZAP RMODE 24
         EJECT
        $HEDIT
        $XENT  BASE=R12
         L     R15,AVSVERR
         MVC   0(18*4,R15),0(R13)  COPY SAVE AREA
         LR    R13,R15             SUBSTITUTION
         USING VSVERR,R13
         L     R11,AVCWORK
         USING VCWORK,R11
         L     R10,=A(VCINIT)
         BR    R10                 -> INITIALIZATION
         SPACE 1
AVSVERR  DC    A(VSVERR)           SAVE AREA - ERROR RETURNS
AVCWORK  DC    A(VCWORK)           WORK AREAS ADDRESS/BASE REGISTER
         EJECT
***********************************************************************
*        GET A COMMAND OR CONTINUE WITH PREVIOUS.                     *
***********************************************************************
INQUIRT  TM    FSCRSW,FSCRSF       FULL SCREEN?
         BZ    INQUIRY             NO
         L     R10,=A(INFST)       YES, GET STATUS
         USING INFST,R10
         B     INFST0
         DROP  R10
INQUIRY  NI    SWITCH,255-XMEMRF   RESET X-MEM REF. REQUEST
         NI    OPERSW,255-GETBSW
        @SEND  INQRY
         OC    ANSR(L'ANSR),ALLBLKS
         LM    R3,R5,SCVAL
         CLI   0(R3),C' '
         BNE   WHAT
         BXLE  R3,R4,*-8
         TM    STATUS,TESTRUN
         BZ    *+L'*+6
         MVC   RCVIND(L'RCVIND),ALLBLKS
         TM    FSCRSW,FSCRSF       FULL SCREEN?
         BZ    *+L'*+8             NO
         TM    FSCRSW,FSCRSC       CONTINUATION?
         BO    CONTOUT             YES
         CLI   PRVOP,C'S'
         BNE   INQ1
         L     R6,PVPTR
         TM    SWITCH,POPXMR       WAS PREVIOUS OP. X-MEM. REF. MODE?
         BZ    *+L'*+4             NO
         OI    SWITCH,XMEMRF       YES, CONTINUE IN X-MEM. REF. MODE
         NI    SWITCH,255-ASFULL-PVALID RESET
         L     R10,=A(DSPLY)
         USING DSPLY,R10
         B     DSPLY0
         DROP  R10
INQ1     L     R6,CRPTR
         ST    R6,DATA
         TM    SWITCH,POPXMR       WAS PREVIOUS OP. X-MEM. REF. MODE?
         BZ    *+L'*+4             NO
         OI    SWITCH,XMEMRF       YES, CONTINUE IN X-MEM. REF. MODE
         CLI   PRVOP,C'F'
         BNE   *+L'*+8
         L     R10,=A(FIND)
         USING FIND,R10
         B     FNCNT
         DROP  R10
         NI    SWITCH,255-ASFULL-PVALID RESET
         L     R10,=A(DSPLY)
         USING DSPLY,R10
         B     DSPLY1
         DROP  R10
WHAT     L     R10,=A(ENCMD)
         BR    R10
LISTOUT  TM    FSCRSW,FSCRSF       FULL SCREEN?
         BZ    ADDOUT              NO
         CLC   FSPOINT,=A(16*81)   YES, SCREEN FULL?
         BL    ADDOUT              NO
         MVC   MSGSVT(L'MSGTXT),MSGTXT  YES, SAVE DATA
         OI    FSCRSW,FSCRSC       SAY CONTINUATION
         NI    FSCRSW,255-FSCRSL   RESET DATA
        $FS    SF=(PROT,INT),MF=(I,FSCRSDC)
         MVC   FSCRTDC,=CL6'*MORE*'     INDICATE THAT DATA CONTINUE
         STM   R2,R10,FSSAVE  SAVE REGISTERS AROUND SCREEN OPERATIONS
         L     R10,=A(INFST)
         USING INFST,R10
         B     INFST0
         DROP  R10
CONTOUT  LM    R2,R10,FSSAVE       RESTORE REGISTERS
         MVC   MSGTXT(L'MSGTXT),MSGSVT  RESTORE DATA
         XC    FSPOINT,FSPOINT
         OI    FSCRSW,FSCRSL       SAY DATA LINES
         NI    FSCRSW,255-FSCRSC   RESET CONTINUATION
ADDOUT  @SEND  MSGOUT,OP=LA
         BR    R9                  RETURN
         EJECT
***********************************************************************
*        RECOVERY PROCESS.                                            *
***********************************************************************
RECOVER0 TM    STATUS,TESTRUN ------------------------------ * DANGER *
         BZ    RECOVER                                                *
         MVI   RCVIND,C'0'                                            *
RECOVER  BAS   R8,DISABLE ---------------------------------- * DANGER *
         TM    SWITCH,ASFULL       ENTIRE A.S. SEARCH?
         BO    RCVR4               YES
         TM    FSCRSW,FSCRSF       FULL SCREEN?
         BZ    RCVR2               NO, PROCESS 0C4
         TM    FSPRSW,FSPRDS       DISPLAY OPERATION?
         BZ    RCVR2               NO, PROCESS 0C4
         LM    R0,R15,FSRCVR       RESTORE REGISTERS
         AR    R2,R6               0C4 IS OCCURED ON NEXT PAGE
         LR    R1,R2
         SRL   R2,8                COMPUTE HOW MANY BYTES IN GOOD PAGE
         SLL   R2,8
         SR    R2,R6
         BNP   RCVR2               NONE, PROCESS 0C4
         LR    R0,R6
         SRL   R0,12
         SLL   R0,12
         LTR   R0,R0
         BZ    RCVR1               PAGE 0 IS AN EXCEPTION
         SRL   R1,12
         SLL   R1,12
         CLR   R0,R1
         BE    RCVR2               SAME PAGE, PROCESS 0C4
RCVR1    LR    R1,R2
         XR    R0,R0
         D     R0,=A(L'HXDATA)
         LR    R4,R1               NEW NUMBER OF LINES TO DISPLAY
         NI    FSPRSW,255-FSPRDS   RESET
         TM    SWITCH,POPXMR       WAS PREVIOUS OP. X-MEM. REF. MODE?
         BZ    *+L'*+4             NO
         OI    SWITCH,XMEMRF       YES, CONTINUE IN X-MEM. REF. MODE
         L     R10,=A(DSPLY)
         USING DSPLY,R10
         B     DSPLY3              RESTART
         DROP  R10
RCVR2    L     R1,=A(DISCC)
         UNPK  32(9,R1),RCVPTR(5)
         TR    32(8,R1),HEXTAB-X'F0'
         MVI   40(R1),C' '
        @SEND  OP=NONE             DISPLAY 0C4.
         CLI   PRVOP,C'S'
         BE    INQUIRT
         L     R1,RCVPTR           RECOVER POINTERS
         ST    R1,PVPTR
         CLI   PRVOP,C'F'
         BE    *+L'*+8
         LA    R1,L'HXDATA(R1)     NEXT DATA DISPLAY
         B     RCVR3
         NI    SWITCH,255-PVALID
         LA    R1,2048(R1)         NEXT PAGE FIND
         LA    R1,2048(R1)
RCVR3    ST    R1,CRPTR
         B     INQUIRT
RCVR4    NI    SWITCH,255-PVALID
         L     R4,RCVPTR
         TM    SGTPSW,STPDIS+STPUSE     SEGMENT PROCESSING DISABLED?
         BNZ   RCVR5               YES
         LR    R10,R4              NO, CHECK IF ON A NEW M-BYTE SEGMENT
         SRL   R10,20
         SLL   R10,20
         CLR   R10,R4
         BNE   RCVR5
         L     R10,=A(SGTCHK)
         BASR  R14,R10             GO CHECK SEGMENT-TABLE
         L     R4,RCVPTR
         LTR   R15,R15             HOW COMPLETE?
         BZ    RCVR5               OK, CONTINUE
         ST    R4,CRPTR            ERROR, GO DISPLAY DIAGNOSE
         B     INQUIRT
RCVR5    L     R10,=A(FIND)
         USING FIND,R10
         B     FNRCV
         DROP  R10
         EJECT
***********************************************************************
*        DIAGNOSTIC MESSAGE.                                          *
***********************************************************************
ERROR    TM    STATUS,TESTRUN
         BZ    *+L'*+6
         MVC   RCVIND(L'RCVIND),ALLBLKS
         TM    FSCRSW,FSCRSF       FULL SCREEN?
         BZ    ERRORMS             NO
         XC    FSPOINT,FSPOINT     YES, RESET
         NI    FSCRSW,255-FSCRSC-FSCRSH-FSCRST-FSCRSL-FSCRSI
         NI    FSPRSW,255-FSPRDS
ERRORMS @SEND  OP=NONE
         B     INQUIRT
         SPACE 1
***********************************************************************
*        THAT'S ALL FOLKS.                                            *
***********************************************************************
FINISH   L     R10,=A(VCEND)
         BR    R10                 -> TERMINATION
EXRET    L     R15,RETCC
        $XRET  CC=(R15)
         EJECT
***********************************************************************
*        SUBROUTINE TO DECODE AN HEX FIELD (MAX. LENGTH 8).           *
*        REGISTERS USE : R1 - WORK REGISTER / NO. OF HEX DIGITS       *
*                        R2 - WORK REGISTER                           *
*                        R3-R4-R5 - ANSWER SCAN REGISTERS             *
*                        R14 - LINK REGISTER                          *
*                               +0 - NO FIELD FOUND                   *
*                               +4 - INVALID HEX                      *
*                               +8 - TOO LONG                         *
*                              +12 - FIELD PROCESSED                  *
*                                    (VALUE IS IN 'DATA')             *
***********************************************************************
SCAN     XR    R1,R1
         XC    DATA,DATA
         LR    R2,R3               START OF DATA FIELD
SCAN1    CLI   0(R3),C','          DELIMITER ,?
         BE    SCAN2               YES
         CLI   0(R3),C'+'          DELIMITER +?
         BE    SCAN2               YES
         CLI   0(R3),C'-'          DELIMITER -?
         BE    SCAN2               YES
         CLI   0(R3),C' '          END OF DATA?
         BE    SCAN2               YES
         CLI   0(R3),C'A'
         BL    4(R14)              EXIT ---------------------------> +4
         CLI   0(R3),C'9'
         BH    4(R14)              EXIT ---------------------------> +4
         CLI   0(R3),C'0'
         BNL   *+L'*+8
         CLI   0(R3),C'F'
         BH    4(R14)              EXIT ---------------------------> +4
         BXLE  R3,R4,SCAN1         INC PTR
SCAN2    LR    R1,R3               TURN TO WK REG
         SR    R1,R2               GET NO OF CHAR SCANNED
         BNPR  R14                 SKIP MOVE IF ZERO --------------> +0
         CH    R1,=H'8'
         BH    8(R14)              SKIP MOVE IF INVALID ADDRESS ---> +8
         BCTR  R1,0                DECR. BY 1
         XC    FXLAB,FXLAB         CLEAR WORK AREA
         EX    R1,MVTMP            MOVE TO WORK AREA
         EX    R1,NRTMP            NORMALIZE FOR TRANSLATE
         EX    R1,TRTMP            TRANSLATE TO BINARY
         LA    R1,1(R1)            INCR. BY 1
         EX    R1,PKTMP            CONVERT TO HEX
         B     12(R14)             EXIT --------------------------> +12
MVTMP    MVC   FXLAB(*-*),0(R2)    <<EXECUTED>>
NRTMP    NC    FXLAB(*-*),=XL8'1F1F1F1F1F1F1F1F'  <<EXECUTED>>
TRTMP    TR    FXLAB(*-*),TRANTBL  <<EXECUTED>>
PKTMP    PACK  DATA(L'DATA+1),FXLAB(*-*)     <<EXECUTED>>
         EJECT
***********************************************************************
*        SUBROUTINE TO EXTRACT A LABEL (MAX. LENGTH 8).               *
*        REGISTERS USE : R1 - WORK REGISTER / NO. OF CHAR. -1         *
*                        R2 - WORK REGISTER                           *
*                        R3-R4-R5 - ANSWER SCAN REGISTERS             *
*                        R7-R8-R9 - P.LABELS TABLE SCAN REGISTERS     *
*                        R14 - LINK REGISTER                          *
*                               +0 - NO LABEL FOUND                   *
*                               +4 - INVALID LABEL                    *
*                               +8 - TOO LONG                         *
*                              +12 - PREDEFINED LABEL + R7            *
*                                    (NAME IS IN 'LBLF')              *
*                              +16 - LABEL PROCESSED + NOT FOUND      *
*                                    (NAME IS IN 'LBLF')              *
***********************************************************************
LABEL    CLI   0(R3),C'0'          FIRST CHAR NUMERIC?
         BNL   4(R14)              YES, INVALID -------------------> +4
         CLI   0(R3),C'A'          FIRST CHAR ALPHA?
         BNL   LABEL1              YES
         CLI   0(R3),C'$'          DOLLAR SIGN?
         BE    LABEL1              YES
         CLI   0(R3),C'#'          NUMBER SIGN?
         BE    LABEL1              YES
         CLI   0(R3),C'@'          AT SIGN?
         BNE   4(R14)              NO, INVALID --------------------> +4
LABEL1   LR    R2,R3               START OF LABEL
LABEL2   BXLE  R3,R4,*+L'*+4       INC PTR
         B     LABEL3
         CLI   0(R3),C' '          END OF LABEL?
         BE    LABEL3              YES
         CLI   0(R3),C'/'          END OF LABEL BY /?
         BE    LABEL3              YES
         CLI   0(R3),C'+'          END OF LABEL BY +?
         BE    LABEL3              YES
         CLI   0(R3),C'-'          END OF LABEL BY -?
         BNE   LABEL2              NO
LABEL3   LR    R1,R3               TURN TO WK REG
         SR    R1,R2               GET NO OF CHAR SCANNED
         BNPR  R14                 SKIP MOVE IF ZERO --------------> +0
         CH    R1,=H'8'
         BH    8(R14)              SKIP MOVE IF INVALID LABEL -----> +8
         MVC   LBLF(L'LBLF),ALLBLKS     CLEAR WORK AREA
         BCT   R1,*+L'*+6          DECR. BY 1
         MVC   LBLF(*-*),0(R2)     <<EXECUTED>>
         EX    R1,*-6              MOVE TO WORK AREA
         LA    R14,12(R14)         ADJUST RETURN
SCITBL   LM    R7,R9,SCFIX         SCAN PREDEFINED LABELS TABLE
         CLC   0(L'LBLF,R7),LBLF
         BER   R14                 EXIT -----------------------> +12/+0
         BXLE  R7,R8,*-8
         B     4(R14)              EXIT -----------------------> +16/+4
         EJECT
***********************************************************************
*        SUBROUTINE TO EXTRACT A NAME (MAX. LENGTH 8).                *
*        REGISTERS USE : R1 - WORK REGISTER / NO. OF CHAR. -1         *
*                        R2 - WORK REGISTER                           *
*                        R3-R4-R5 - ANSWER SCAN REGISTERS             *
*                        R14 - LINK REGISTER                          *
*                               +0 - NO NAME FOUND                    *
*                               +4 - INVALID NAME                     *
*                               +8 - TOO LONG                         *
*                              +12 - NAME PROCESSED                   *
*                                    (NAME IS IN 'NMEF')              *
***********************************************************************
NAME     CLI   0(R3),C'*'          FIRST CHAR *?
         BE    NAME1               YES, VALID
NAMER    CLI   0(R3),C'0'          FIRST CHAR NUMERIC?
         BNL   4(R14)              YES, INVALID -------------------> +4
         CLI   0(R3),C'A'          FIRST CHAR ALPHA?
         BNL   NAME1               YES
         CLI   0(R3),C'$'          DOLLAR SIGN?
         BE    NAME1               YES
         CLI   0(R3),C'#'          NUMBER SIGN?
         BE    NAME1               YES
         CLI   0(R3),C'@'          AT SIGN?
         BNE   4(R14)              NO, INVALID --------------------> +4
NAME1    LR    R2,R3               START OF NAME
         BXLE  R3,R4,*+L'*+4       INC PTR
         B     *+L'*+8
         CLI   0(R3),C' '          END OF NAME?
         BNE   *-12                NO
         LR    R1,R3               TURN TO WK REG
         SR    R1,R2               GET NO OF CHAR SCANNED
         BNPR  R14                 SKIP MOVE IF ZERO --------------> +0
         CH    R1,=H'8'
         BH    8(R14)              SKIP MOVE IF INVALID NAME ------> +8
         MVC   NMEF(L'NMEF),ALLBLKS     CLEAR WORK AREA
         BCT   R1,*+L'*+6          DECR. BY 1
         MVC   NMEF(*-*),0(R2)     <<EXECUTED>>
         EX    R1,*-6              MOVE TO WORK AREA
         B     12(R14)             EXIT --------------------------> +12
         EJECT
***********************************************************************
*        SUBROUTINE TO SCAN LABELS TABLE.                             *
*        REGISTERS USE : R7-R8-R9 - LABELS TABLE SCAN REGISTERS       *
*                        R14 - LINK REGISTER                          *
***********************************************************************
SCLTBL   CLC   TBVAL+8(4),TBVAL
         BL    ERR19
         LM    R7,R9,TBVAL         SCAN LABELS TABLE
         CLC   0(L'LBLF,R7),LBLF
         BER   R14
         BXLE  R7,R8,*-8
         B     ERR20
         SPACE 2
***********************************************************************
*        SUBROUTINE TO POSITION ON NEXT CHARACTER.                    *
*        REGISTERS USE : R3-R4-R5 - ANSWER SCAN REGISTERS             *
*                        R14 - LINK REGISTER                          *
*                              +0 - NO CHARACTER FOUND                *
*                              +4 - NEXT CHARACTER POINTED            *
***********************************************************************
NEXT     CLR   R3,R5               NO MORE CHAR?
         BHR   R14                 YES, LIKE NO CHARACTER FOUND ---> +0
         CLI   0(R3),C' '          IS THIS CHAR BLANK?
         BNE   4(R14)              NO, OK POINTED -----------------> +4
NEXTCH   BXLE  R3,R4,*-8           BUMP POINTER
         BR    R14                 NO CHARACTER FOUND -------------> +0
         EJECT
***********************************************************************
*        I/O ROUTINE (WTO/WTOR OR TPUT/TGET AND FULL SCREEN).         *
*        REGISTERS USE : R0 - WORK REGISTER                           *
*                        R1 - WTO(R) LIST / WORK REGISTER             *
*                        R2 - ALTERNATE SCREEN ADDRESS                *
*                        R3 - ALTERNATE SCREEN LENGTH                 *
*                        R4 - ALTERNATE SCREEN INPUT                  *
*                        R14-R15 - WORK REGISTERS                     *
*                        R8 - LINK REGISTER                           *
***********************************************************************
SEND     TM    STATUS,TSORUN
         BO    STSO
*        --------------------------------------------------------------
*        WTO/WTOR PROCESSING.
*        --------------------------------------------------------------
         CLI   0(R1),0             REPLY?
         BNE   SENDR               YES
         TM    HCPRSW,HCCOPY       IS HARDCOPY ACTIVE?
         BZ    *+L'*+6             NO
         L     R15,=A(HCOPYSC)     HARDCOPY LINE
         BASR  R14,R15
        WTO    MF=(E,(1))
         BR    R8
SENDR    L     R14,4(R1)           ECB