         MACRO --- $ABDF --- ALLOCATED BLOCK DESCRIPTOR FORMAT     -EU-
         $AFUF ,                                                   -EU-
         SPACE 1                                                   -EU-
*        FORMAT OF ALLOCATED/FREE/UNALLOCATED SPACE DESCRIPTOR.    -EU-
         SPACE 1                                                   -EU-
AFUF     DSECT .                                                   -EU-
AFUFVA   DS    A .           VIRTUAL ADDRESS OF THE SPACE          -EU-
AFUFLG   DS    F .           LENGTH OF THE SPACE                   -EU-
LAFUF    EQU   *-AFUF .      LENGTH OF DSECT                       -EU-
         MEND  ,                                                   -EU-
         MACRO --- $GDA --- GLOBAL DATA AREA DSECT
         $GDA  &G=YES                                              -EU-
         AIF   ('&G' EQ 'YES').GEN                                 -EU-
         PRINT NOGEN                                               -EU-
.GEN     IHAGDA  ,                                                 -EU-
         AIF   ('&G' EQ 'YES').EXT                                 -EU-
         PRINT GEN                                                 -EU-
.EXT     MEND  ,                                                   -EU-
         MACRO --- $HCPY --- VSM CALL HARDCOPY SCREEN              -EU-
&NAME    $HCPY &HSA=                                               -EU-
         AIF   ('&HSA'(1,1) EQ '(').REG                            -EU-
&NAME    LA    R0,&HSA       GET HARDCOPY SCREEN ADDRESS           -EU-
         AGO   .CNT                                                -EU-
.REG     AIF   ('&HSA(1)' EQ '0').SET                              -EU-
         AIF   ('&HSA(1)' NE 'R0').SRG                             -EU-
.SET     ANOP  ,                                                   -EU-
&NAME    ST    R0,@HCPY      SET HARDCOPY SCREEN ADDRESS           -EU-
         AGO   .CLL                                                -EU-
.SRG     ANOP  ,                                                   -EU-
&NAME    LR    R0,&HSA(1)    GET HARDCOPY SCREEN ADDRESS           -EU-
.CNT     ST    R0,@HCPY      SET IT                                -EU-
.CLL     XR    R0,R0         HARD COPY REQUEST                     -EU-
         LR    R1,R10        POINT TO LINKAGE                      -EU-
         L     R15,@HCMOD    EXECECUTE                             -EU-
         BASR  R14,R15         HARDCOPY ROUTINE                    -EU-
         MEND  ,                                                   -EU-
         MACRO --- $LNKSECT--- VSM LINKAGE SECTION/DSECT
&NAME    $LNKSECT &DS=YES,&SZ=4                                    -EU-
         SPACE 1
         AIF   ('&DS' NE 'YES').NODS                               -EU-
*        VSM LINKAGE SECTION DSECT.
         SPACE 1
         AIF   ('&NAME' EQ '').DFLT                                -EU-
&NAME    DSECT .                                                   -EU-
         AGO   .CONT                                               -EU-
.DFLT    ANOP                                                      -EU-
$LNKSECT DSECT .
.CONT    ANOP                                                      -EU-
@GDA     DS    F .           ADDRESS OF GLOBAL DATA AREA
@PUTAREA DS    F .           ADDRESS OF OUTPUT SCREEN
@PUTLEN  DS    F .           LENGTH OF OUTPUT SCREEN
@IOMOD   DS    F .           ADDRESS OF I/O MODULE
@GETAREA EQU   * .
@PFKCODE DS    XL6 .         CONTROL CHARACTERS                    -EU-
@RSPONSE DS    CL1 .         TERMINAL COMMAND
@BADCMND DS    CL1 .         BAD COMMAND INDICATOR
@GETLEN  EQU   *-@GETAREA .  LENGTH OF INPUT AREA
@HCMOD   DS    F .           ADDRESS OF HARDCOPY MODULE            -EU-
@HCPY    DS    F .           HARDCOPY SCREEN ADDRESS               -EU-
@SNAP    DS    F .           SNAP ROUTINE ADDRESS                  -EU-
@TIOT    DS    F .           TIOT ADDRESS                          -EU-
@SNPLST  DS    2F .          SNAP START-END AREA ADDRESSES         -EU-
@WAADD   DS    F .           WORK AREA ADDRESS                     -EU-
@WASIZ   DS    F .           WORK AREA SIZE                        -EU-
@MSGW   WTO    '----+----1----+----2----+----3----+----4----+----5',   1
               ROUTCDE=11,DESC=7,MF=L                              -EU-
@MSG     EQU   @MSGW+4,50    MESSAGE AREA                          -EU-
@PPTR    DS    F .           PARM. FIELD POINTER (DISPLACEMENT)    -EU-
@HCLASS  DS    CL1 .         HARDCOPY BATCH SYSOUT CLASS           -EU-
@SBXQ    DS    CL1 .         START OF BATCH EXECUTION              -EU-
@PARM    DS    CL20 .        BATCH RUN - PARM. FIELD               -EU-
         DS    CL2 .         END OF BATCH EXECUTION                -EU-
@SWITCH  DS    XL1 .         GENERAL SWITCHES                      -EU-
@SNPFNA  EQU   X'20' .            SNAP FUNCTION NOT ACTIVE         -EU-
@SNPOPN  EQU   X'10' .            SNAP DATA-SET IS OPENED          -EU-
@BATCH   EQU   X'08' .            BATCH CALL RUNNING               -EU-
@HFAIL   EQU   X'02' .            HARDCOPY OPEN HAS FAILED         -EU-
@HCOPY   EQU   X'01' .            HARDCOPY IS OPENED               -EU-
         MEXIT                                                     -EU-
.NODS    ANOP                                                      -EU-
*        VSM LINKAGE SECTION.                                      -EU-
         SPACE 1                                                   -EU-
&NAME    DC    F'0' .        ADDRESS OF GLOBAL DATA AREA           -EU-
         DC    F'0' .        ADDRESS OF OUTPUT SCREEN              -EU-
         DC    F'0' .        LENGTH OF OUTPUT SCREEN               -EU-
         DC    F'0' .        ADDRESS OF I/O MODULE                 -EU-
         DC    XL6'0' .      CONTROL CHARACTERS                    -EU-
         DC    CL1' ' .      TERMINAL COMMAND                      -EU-
         DC    CL1' ' .      BAD COMMAND INDICATOR                 -EU-
         DC    F'0' .        ADDRESS OF HARDCOPY MODULE            -EU-
         DC    F'0' .        HARDCOPY SCREEN ADDRESS               -EU-
         DC    F'0' .        SNAP ROUTINE ADDRESS                  -EU-
         DC    F'0' .        TIOT ADDRESS                          -EU-
         DC    2F'0' .       SNAP START-END AREA ADDRESSES         -EU-
         DC    F'0' .        WORK AREA ADDRESS                     -EU-
         DC    A(&SZ*1024) . WORK AREA SIZE                        -EU-
        WTO    '----+----1----+----2----+----3----+----4----+----5',   1
               ROUTCDE=11,DESC=7,MF=L                              -EU-
         DC    F'0' .        PARM. FIELD POINTER (DISPLACEMENT)    -EU-
         DC    CL1'A' .      HARDCOPY BATCH SYSOUT CLASS           -EU-
         DC    CL1'S' .      START OF BATCH EXECUTION              -EU-
         DC    XL20'0' .     BATCH RUN - PARM. FIELD               -EU-
         DC    XL2'0' .      END OF BATCH EXECUTION                -EU-
         DC    XL1'0' .      GENERAL SWITCHES                      -EU-
         MEND
         MACRO --- $SDF --- SUBPOOL DESCRIPTOR FORMAT              -EU-
         $SDF  ,                                                   -EU-
         SPACE 1                                                   -EU-
*        FORMAT OF SUBPOOL DESCRIPTOR.                             -EU-
         SPACE 1                                                   -EU-
SDF      DSECT .                                                   -EU-
SDFIS    DS    XL1 .         X'00' TO IDENTIFY A SUBPOOL DESCRIPTOR-EU-
SDFLG    DS    XL1 .         LENGTH OF SUBPOOL DESCRIPTOR          -EU-
SDFID    DS    XL1 .         SUBPOOL ID                            -EU-
SDFKF    DS    XL1 .         STORAGE KEY (BITS 0-3) AND FLAGS      -EU-
SDFTCB   DS    A .           OWNING TCB (PVT) OR ZERO              -EU-
         MEND  ,                                                   -EU-
         MACRO --- $SNAP --- VSM CALL SNAP                         -EU-
&NAME    $SNAP &ID=0                                               -EU-
         AIF   ('&ID'(1,1) EQ '(').REG                             -EU-
&NAME    LA    R0,&ID        SET SNAP-ID NUMBER                    -EU-
         AGO   .CNT                                                -EU-
.REG     AIF   ('&ID(1)' EQ '0').SET                               -EU-
         AIF   ('&ID(1)' NE 'R0').SRG                              -EU-
.SET     ANOP  ,                                                   -EU-
&NAME    LR    R1,R10        POINT TO LINKAGE                      -EU-
         AGO   .CLL                                                -EU-
.SRG     ANOP  ,                                                   -EU-
&NAME    LR    R0,&ID(1)     SET SNAP-ID NUMBER                    -EU-
.CNT     LR    R1,R10        POINT TO LINKAGE                      -EU-
.CLL     L     R15,@SNAP     EXECECUTE                             -EU-
         BASR  R14,R15         SNAP ROUTINE                        -EU-
         MEND  ,                                                   -EU-
