ZAP      TITLE '--- E T P S -- ETPSZAP - DATA-SET DISPLAY/MODIFY ---'
         PRINT OFF
         COPY  ETPS$O2A            "ETPS" SYSPARM SELECTION
         MACRO
&NAME   @CMD   &CN,&CA
         LCLA  &L
         AIF   ('&CN' NE '').A
         MNOTE 8,' COMMAND NAME MISSING **************************** '
         MEXIT
.A       AIF   ('&CA' NE '').B
         MNOTE 8,' COMMAND ADDRESS MISSING ************************* '
         MEXIT
.B       AIF   ('&CN'(1,1) NE '''').C
&L       SETA  K'&CN-2
         AIF   (&L GT 8).ERR
&NAME    DC    AL1(&L-1),CL8&CN,AL3(&CA)
         MEXIT
.C       ANOP
&L       SETA  K'&CN
         AIF   (&L GT 8).ERR
&NAME    DC    AL1(&L-1),CL8'&CN',AL3(&CA)
         MEXIT
.ERR     MNOTE 8,' COMMAND NAME TOO LONG (MAX.=8) ****************** '
         MEND
         MACRO
&NAME   @IML   &TX
         GBLA  &##
         LCLA  &L,&N,&M
         AIF   ('&TX' EQ 'END').J
&##      SETA  &##+1
         AIF   ('&TX' NE '').A
         MNOTE 8,' LINE IMAGE - TEXT MISSING *********************** '
         MEXIT
.A       ANOP
&N       SETA  1
&L       SETA  K'&TX
         AIF   ('&TX'(&N,1) EQ '''').B
         MNOTE 8,' TEXT - INITIAL QUOTE MISSING ******************** '
         MEXIT
.B       AIF   (&L LT 2).C
         AIF   ('&TX'(&L,1) EQ '''').D
.C       MNOTE 8,' TEXT - FINAL QUOTE MISSING ********************** '
         MEXIT
.D       AIF   (&L GT 2).E
&NAME    DC    XL1'80'
         MEXIT
.E       ANOP
&L       SETA  &L-1
&M       SETA  0
.F       ANOP
&N       SETA  &N+1
&M       SETA  &M+1
         AIF   (&M LE 60).G
         MNOTE 8,' TEXT TOO LONG (MAX. = 60) *********************** '
         MEXIT
.G       AIF   ('&TX'(&N,1) NE '''').I
&N       SETA  &N+1
         AIF   (&N GT &L).H
         AIF   ('&TX'(&N,1) EQ '''').F
.H       MNOTE 8,' QUOTE IN TEXT MUST BE DOUBLED ******************* '
         MEXIT
.I       AIF   (&N LT &L).F
&NAME    DC    AL1(&M-1),CL&M&TX
         MEXIT
.J       ANOP
&NAME    DC    XL1'FF'
.* ---> HELP LINES : FROM LINE 6 TO LINE 18 INCLUDED = 13.
         AIF   (&## LE 13).K
         MNOTE 8,' TOO MANY LINES IN THIS HELP IMAGE *************** '
.K       ANOP
&##      SETA  0
         MEND
         MACRO
&NAME   @HEX   &TO,&FROM,&L,&LEN=,&HEXTAB=,&BYTE=C' ',&DIGITS=
         GBLC  &HEXTAB#
         LCLA  &LT                 UNPK "TO" LENGTH
         LCLA  &LF                 UNPK "FROM" LENGTH
         LCLA  &LTR                TR "TO" LENGTH
         LCLA  &LL                 &LEN ONE WAY OR ANOTHER
         LCLC  &F1,&F2,&T1,&T2,&LX
&HEXTAB# SETC  'HEXTAB'
&F1      SETC  '&FROM(1)'          FOR SHORTER STRING LATER
&F2      SETC  '&FROM(2)'          FOR SHORTER STRING LATER
&T1      SETC  '&TO(1)'            FOR SHORTER STRING LATER
&T2      SETC  '&TO(2)'            FOR SHORTER STRING LATER
&LX      SETC  '&L&LEN'            GET LENGTH USING EITHER METHOD
         AIF   ('&LX' EQ '').DEFLEN LENGTH WILL DEFAULT TO 4
&LL      SETA  &LX                 GET IT
         AGO   .OKLEN
.DEFLEN  ANOP
&LL      SETA  4                   SET THE DEFAULT LENGTH
.OKLEN   AIF   ('&HEXTAB' EQ '').OKHEX1
&HEXTAB# SETC  '&HEXTAB'
.OKHEX1  AIF   ('&HEXTAB#' NE '').OKHEX2
&HEXTAB# SETC  'HEXTAB'
.OKHEX2  ANOP
&LT      SETA  &LL*2
         AIF   ('&DIGITS' EQ '').OKDIGIT
&LT      SETA  &DIGITS
.OKDIGIT AIF   (N'&TO NE 2).TO1
         AIF   (N'&FROM NE 2).T2F1
&NAME    UNPK  &T1.(&LT+1,&T2),&F1.(&LL+1,&F2)
         TR    &T1.(&LT,&T2),&HEXTAB#
         MVI   &T1+&LT.(&T2),&BYTE
         MEXIT
.T2F1    AIF   (N'&FROM NE 1).ERRF
&NAME    UNPK  &T1.(&LT+1,&T2),&FROM.(&LL+1)
         TR    &T1.(&LT,&T2),&HEXTAB#
         MVI   &T1+&LT.(&T2),&BYTE
         MEXIT
.TO1     AIF   (N'&TO NE 1).ERRT
         AIF   (N'&FROM NE 2).T1F1
&NAME    UNPK  &TO.(&LT+1),&F1.(&LL+1,&F2)
         TR    &TO.(&LT),&HEXTAB#
         MVI   &TO+&LT,&BYTE
         MEXIT
.T1F1    AIF   (N'&FROM NE 1).ERRF
&NAME    UNPK  &TO.(&LT+1),&FROM.(&LL+1)
         TR    &TO.(&LT),&HEXTAB#
         MVI   &TO+&LT,&BYTE
         MEXIT
.ERRF    MNOTE 8,' ERROR IN "FROM" PARAMETER *********************** '
         MEXIT
.ERRT    MNOTE 8,' ERROR IN "TO" PARAMETER ************************* '
         MEND
         MACRO
&NAME   @OP    &M,&F,&O
         GBLA  &#
         LCLC  &F$
&F$      SETC  '&F'
         AIF   ('&F'(1,1) NE '''').OK
&F$      SETC  '&F'(2,1)
.OK      ANOP
&#       SETA  &#+1
@&O      EQU   &#
&NAME    DC    CL4'&M',C'&F$',X'&O'
         MEND
         MACRO
        @SST   &DUMMY
SSTAB    DS    0F                  START SENSITIVE PREFIXES TABLE
         GBLA  &ZSSN
         GBLC  &ZSSE(1)
         LCLA  &L,&M,&N
         AIF   (&ZSSN EQ 0).B
&N       SETA  1
.A       AIF   (&N GT &ZSSN).B
&M       SETA  K'&ZSSE(&N)
&L       SETA  &M-1
         DC    AL1(&L),CL&M'&ZSSE(&N)'
&N       SETA  &N+1
         AGO   .A
.B       DC    XL1'FF'             END OF TABLE
         SPACE 1
         MEND
         COPY  ETPSMACS            "ETPS" MACROS
         COPY  ETPSDEFS            "ETPS" DEFINITIONS
         PRINT ON
ETPSZAP  START 0
         SPACE 1
ETPSZAP  AMODE 24
ETPSZAP  RMODE 24
        MIDENT
         EJECT
*------- ZAP SELECT DATA-SET PROCESS --------------------------------*
         PRINT GEN
         USING *,R12,R11
         USING SAVE2,R13      ************************** R13 ==> SAVE2
         USING SPLTAREA,R10   AT ENTRY : R10 MUST POINT TO "SPLTAREA"
         B     32(,R15)
         DC    CL28'  ETPSZAP  &SYSDATE &SYSTIME'
         PRINT &PRF
         STM   R14,R12,12(R13)     SAVE INPUT REGISTERS
         LR    R12,R15             SET PROGRAM BASE REGISTER 1
         LA    R3,1
         LA    R11,4*KB-1(R3,R12)  SET PROGRAM BASE REGISTER 2
         LR    R3,R10              SPLIT-SCREEN DSECT
         SH    R3,=Y(SPLITWRK-SAVE2) POINT TO SAVE2
         ST    R13,4(,R3)          STORE BACKWARD POINTER
         ST    R3,8(R13)           STORE FORWARD POINTER
         LR    R13,R3              SET DSECT BASE
         OI    ZAPPASS,C' '
         CLI   ZAPPASS,C' '        IS THERE A GIVEN PASSWORD?
         BNE   ZSCRBLD             YES
         MVC   ZAPPASS,USERPASS    ELSE SET IT TO LOGON PASSWORD
*- - - - BUILD ZAP SELECT ENTRY SCREEN
ZSCRBLD  L     R5,=A(ZAPSCR)
         L     R4,SCROWS1          NUMBER OF ROWS IN SCREEN 1
         LA    R3,TERMOUT+4        POINT TO FIRST LINE OF SCREEN 1
         CLI   SPLIT,2             AM I ON SCREEN 2
         BNE   ZSCRBLD1            NOPE, I'M ALL SET
         SLL   R4,2                MULTIPLY OFFSET BY 4
         LA    R3,TERMOUT+4(R4)    POINT TO ROW 1 OF SCREEN 2
         L     R4,SCROWS2          NUMBER OF ROWS IN SCREEN 2
ZSCRBLD1 NI    0(R3),255-EOS       CLEAR END-OF-SCREEN
         L     R2,0(,R5)           ADDRESS OF FROM FIELD
         L     R6,0(,R3)           ADDRESS OF "TO" FIELD
         XR    R1,R1
         IC    R1,0(,R2)           PICK UP LENGTH
         EX    R1,ZSCRMVL          MOVE IT
         CLC   ZAOFF1(10,R6),=CL10'FULLY-QUAL' DS-NAME?
         BNE   ZSCRBLD2            NO
         OI    ZAPDSNM,C' '
         CLI   ZAPDSNM,C' '        IS THERE A DATA-SET NAME SPECIFIED?
         BE    ZSCRBLD4            NO
         MVC   ZASCF1(L'ZAPDSNM,R6),ZAPDSNM COPY CURRENT DATA-SET NAME
         B     ZSCRBLD4            DO THE REST
ZSCRMVL  MVC   0(*-*,R6),0(R2)     <<EXECUTED>>
ZSCRBLD2 CLC   ZAOFF2(13,R6),=CL13'VOLUME SERIAL' VOL-SER?
         BNE   ZSCRBLD3            NO
         OC    ZAPVOL,=CL6' '
         CLI   ZAPVOL,C' '         IS THERE A VOL-SER SPECIFIED?
         BE    ZSCRBLD4            NO
         MVC   ZASCF2(L'ZASCF2,R6),ZAPVOL  COPY CURRENT VOL-SER
         B     ZSCRBLD4            DO THE REST
ZSCRBLD3 CLC   ZAOFF3(17,R6),=CL17'DATA-SET PASSWORD' PASSWORD?
         BNE   ZSCRBLD4            NO
         MVC   ZASCF3(L'ZASCF3,R6),ZAPPASS COPY CURRENT PASSWORD
         CLI   ZAPPASS,C' '        IS THERE A PASSWORD SPECIFIED?
         BE    ZSCRBLD4            NO
         MVC   ZAOFF4(L'ZAOFF4,R6),=CL3'(I)' SAY IN
         MVI   ZAOFF4-1(R6),X'05'  SET INTENS
ZSCRBLD4 TM    0(R5),EOL           END-OF-LIST?
         BO    ZSCRBLD5            YUP
         BCT   R4,*+L'*+4          END OF SCREEN ROWS?
         B     ZSCRBLD6            YUP
         LA    R5,4(R5)            BUMP TO NEXT PARM
         LA    R3,4(R3)            BUMP TO NEXT PARM
         B     ZSCRBLD1            KEEP LOOPING
ZSCRBLD5 BCT   R4,*+L'*+4          END OF SCREEN ROWS?
         BZ    ZSCRBLD6            YUP
         LA    R3,4(R3)            BUMP TO NEXT PARM
         L     R6,0(,R3)           ADDRESS OF "TO" FIELD
         NI    0(R3),255-EOS       CLEAR END-OF-SCREEN
         MVC   0(ZDUMMYL,R6),ZDUMMY MOVE IN A DUMMY ROW
         B     ZSCRBLD5            KEEP LOOPING
ZSCRBLD6 CLI   SPLIT,1             AM I IN SPLIT-SCREEN, SCREEN 1?
         BE    *+L'*+4             YES
         OI    0(R3),EOS           SET END-OF-SCREEN
         L     R15,=A(ZAPHLP)      HELP SCREEN
         ST    R15,HELPADD
         MVI   CURROW,CRZASC       CURSOR ROW
         MVI   CURCOL,CCZASC       CURSOR COLUMN
         L     R15,ARCOMM          GO COMMUNICATE
*- - - - ETPSCOMM PARM.LIST : NONE
        CALL   (15)
         LTR   R15,R15             BAD RC?
         BNZ   ZEXIT               YUP
         TM    COMMSW,PFKFLAG      IS IT A PF KEY/ATTN?
         BZ    ZACKINPT            NOPE, GO CHECK THE INPUT
         L     R2,TERMINPT         PICK UP AID ADDRESS
         CLI   0(R2),X'F3'         IS IT PF3?
         BE    ZEXIT               YUP, I'M DONE
         CLI   0(R2),X'C3'         IS IT PF15?
         BE    ZEXIT               YUP, I'M DONE
         CLI   0(R2),X'6C'         IS IT PA1?
         BE    ZEXIT               YUP, I'M DONE
         CLI   0(R2),X'6D'         IS IT "CLEAR"?
         BE    ZSCRBLD             YUP, RESHOW SCREEN
         CLI   0(R2),X'6E'         IS IT PA2?
         BE    ZSCRBLD             YUP, RESHOW SCREEN
         LA    R1,ZINVPFK
ZASTMSG  ST    R1,MSGADD
         B     ZSCRBLD             RESHOW SCREEN
*- - - - CHECK ENTERED ZAP SELECTIONS
ZACKINPT L     R5,TERMINPT+ZIZ1    PICK UP DS-NAME FIELD
         L     R6,TERMINPT+ZIZ2    PICK UP VOL-SER FIELD
         L     R7,TERMINPT+ZIZ3    PICK UP PASSWORD FIELD
         CLI   SPLIT,2             AM I ON SCREEN 2?
         BNE   ZACKINPC            NOPE
         L     R3,SCROWS1          PICK UP SIZE OF SCREEN 1
         SLL   R3,2                MULTIPLY BY 4
         L     R5,TERMINPT+ZIZ1(R3) PICK UP DS-NAME FIELD
         L     R6,TERMINPT+ZIZ2(R3) PICK UP VOL-SER FIELD
         L     R7,TERMINPT+ZIZ3(R3) PICK UP PASSWORD FIELD
ZACKINPC CLI   0(R5),0             DS-NAME ENTERED (OR CHANGED)?
         BNE   *+L'*+16            YES
         OI    ZAPDSNM,C' '
         CLI   ZAPDSNM,C' '        DS-NAME ALREADY IN?
         BNE   ZACVLSR             YES
         B     ZSCRBLD             ELSE RETRY THE SCREEN
         LA    R0,L'ZASCF1-1       LEFT JUSTIFY FIELD IF NEEDED
         CLI   ZASCF1(R5),C' '
         BNE   ZADSNMV
         MVC   ZASCF1(L'ZASCF1-1,R5),ZASCF1+1(R5)
         MVI   ZASCF1+L'ZASCF1-1(R5),C' '
         BCT   R0,*-18
         MVC   ZAPDSNM(L'ZAPDSNM),ZASCF1(R5)
         B     ZSCRBLD             RETRY THE SCREEN
ZADSNMV  MVI   ZAPDSNM,C' '        RESET DS-NAME FIELD
         MVC   ZAPDSNM+1(L'ZAPDSNM-1),ZAPDSNM
         LA    R0,L'ZAPDSNM        MAX. LENGTH FOR A DS-NAME
         LA    R14,ZASCF1(R5)      START ADDRESS FOR DSN LENGTH CALC
         XR    R15,R15             SET COUNTER
ZADSNLOP CLI   0(R14),C' '         BLANK IS END OF DSN?
         BE    ZADSNEND            GOT END
         CLI   0(R14),C'('         LEFT PAREN INDICATES MEMBER?
         BE    ZADSNEND            YES, GOT END
         LA    R14,1(R14)          BUMP ADDRESS
         LA    R15,1(R15)          BUMP COUNTER
         BCT   R0,ZADSNLOP         TEST NEXT BYTE IF ANY
         LA    R1,ZBADDSN          ELSE ERROR
         B     ZASTMSG
ZADSNEND BCT   R15,*+L'*+6         SUBTRACT 1
         MVC   ZAPDSNM(*-*),ZASCF1(R5) <<EXECUTED>>
         EX    R15,*-6
ZACVLSR  CLI   0(R6),0             VOL-SER ENTERED?
         BE    ZACPSWD             NO
         MVC   ZAPVOL,=CL6' '
         LA    R0,L'ZASCF2-1       LEFT JUSTIFY FIELD IF NEEDED
         CLI   ZASCF2(R6),C' '
         BNE   *+L'*+14
         MVC   ZASCF2(L'ZASCF2-1,R6),ZASCF2+1(R6)
         MVI   ZASCF2+L'ZASCF2-1(R6),C' '
         BCT   R0,*-18
         MVC   ZAPVOL(6),ZASCF2(R6) MOVE IN THE VOL-SER
ZACPSWD  CLI   0(R7),0             PASSWORD ENTERED?
         BE    ZAGOCHK             NO
         LA    R0,L'ZASCF3-1       LEFT JUSTIFY FIELD IF NEEDED
         CLI   ZASCF3(R7),C' '
         BNE   *+L'*+14
         MVC   ZASCF3(L'ZASCF3-1,R7),ZASCF3+1(R7)
         MVI   ZASCF3+L'ZASCF3-1(R7),C' '
         BCT   R0,*-18
         MVC   ZAPPASS(L'ZAPPASS),ZASCF3(R7) MOVE IN THE PASSWORD
ZAGOCHK  CLC   ZAPDSNM(5),=CL5'VTOC '
         BNE   ZAGOXEQ
         OC    ZAPVOL,=CL6' '
         CLI   ZAPVOL,C' '         IS THERE A VOL-SER SPECIFIED?
         BNE   *+L'*+8             YES, OK
         LA    R1,ZVLMISS          NO, MISSING
         B     ZASTMSG
         MVC   ZAPDSNM(12),=CL12'FORMAT4.DSCB'
ZAGOXEQ  MVI   ZAPLGDSN,C' '       CLEAR "LOG" DS-NAME
         MVC   ZAPLGDSN+1(L'ZAPLGDSN-1),ZAPLGDSN
         MVC   ZAPLGVOL(L'ZAPLGVOL),ZAPLGDSN CLEAR "LOG" VOL-SER
         L     R15,=A(ETPSXZAP)
*- - - - ETPSXZAP PARM.LIST : DS-NAME, VOL-SER, PASSWORD, LOG.DS-NAME,
*                             LOG.VOL-SER
        CALL   (15),(ZAPDSNM,ZAPVOL,ZAPPASS,ZAPLGDSN,ZAPLGVOL),VL,     X
               MF=(E,PARMVL)
         LTR   R15,R15             HOW COMPLETE?
         BZ    ZOKRST              OK
        XMESS  3010,R15            ERROR
         LA    R1,ZGMMSG
         ST    R1,MSGADD
ZOKRST   CLC   ZAPDSNM(12),=CL12'FORMAT4.DSCB'
         BNE   ZLGTST
         MVI   ZAPDSNM,C' '        CLEAR VTOC REQUEST
         MVC   ZAPDSNM+1(L'ZAPDSNM-1),ZAPDSNM
         MVC   ZAPVOL,=CL6' '
ZLGTST   CLI   ZAPLGDSN,C' '       IS THERE A "LOG" DS-NAME?
         BE    ZSCRBLD             NO
*- - - - BUILD ZAP LOG ENTRY SCREEN
         NI    ZLGSW,255-ZLGVIEW-ZLGDEL-ZLGALT RESET ALL
ZLGSBLD  L     R5,=A(ZLGSCR)
         L     R4,SCROWS1          NUMBER OF ROWS IN SCREEN 1
         LA    R3,TERMOUT+4        POINT TO FIRST LINE OF SCREEN 1
         CLI   SPLIT,2             AM I ON SCREEN 2
         BNE   ZLGSBLD1            NOPE, I'M ALL SET
         SLL   R4,2                MULTIPLY OFFSET BY 4
         LA    R3,TERMOUT+4(R4)    POINT TO ROW 1 OF SCREEN 2
         L     R4,SCROWS2          NUMBER OF ROWS IN SCREEN 2
ZLGSBLD1 NI    0(R3),255-EOS       CLEAR END-OF-SCREEN
         L     R2,0(,R5)           ADDRESS OF FROM FIELD
         L     R6,0(,R3)           ADDRESS OF "TO" FIELD
         XR    R1,R1
         IC    R1,0(,R2)           PICK UP LENGTH
         EX    R1,ZLGSMVL          MOVE IT
         CLC   ZLOFF1(8,R6),=CL8'LOG VIEW' VIEWING?
         BNE   ZLGSBLD2            NO
         TM    ZLGSW,ZLGVIEW       YES
         BO    *+L'*+10
         MVC   ZLSCF1(2,R6),=CL2'NO' SET "NO"
         B     ZLGSBLD3            DO THE REST
         MVC   ZLSCF1(3,R6),=CL3'YES' SET "YES"
         B     ZLGSBLD3            DO THE REST
ZLGSMVL  MVC   0(*-*,R6),0(R2)     <<EXECUTED>>
ZLGSBLD2 CLC   ZLOFF2(8,R6),=CL8'AND / OR' DELETE?
         BNE   ZLGSBLD3            NO
         TM    ZLGSW,ZLGDEL        YES
         BO    *+L'*+10
         MVC   ZLSCF2(2,R6),=CL2'NO' SET "NO"
         B     ZLGSBLD3            DO THE REST
         MVC   ZLSCF2(3,R6),=CL3'YES' SET "YES"
ZLGSBLD3 TM    0(R5),EOL           END-OF-LIST?
         BO    ZLGSBLD4            YUP
         BCT   R4,*+L'*+4          END OF SCREEN ROWS?
         B     ZLGSBLD5            YUP
         LA    R5,4(R5)            BUMP TO NEXT PARM
         LA    R3,4(R3)            BUMP TO NEXT PARM
         B     ZLGSBLD1            KEEP LOOPING
ZLGSBLD4 BCT   R4,*+L'*+4          END OF SCREEN ROWS?
         B     ZLGSBLD5            YUP
         LA    R3,4(R3)            BUMP TO NEXT PARM
         L     R6,0(,R3)           ADDRESS OF "TO" FIELD
         NI    0(R3),255-EOS       CLEAR END-OF-SCREEN
         MVC   0(ZDUMMYL,R6),ZDUMMY MOVE IN A DUMMY ROW
         B     ZLGSBLD4            KEEP LOOPING
ZLGSBLD5 CLI   SPLIT,1             AM I IN SPLIT-SCREEN, SCREEN 1?
         BE    *+L'*+4             YES
         OI    0(R3),EOS           SET END-OF-SCREEN
         L     R15,=A(ZLGHELP)     HELP SCREEN
         ST    R15,HELPADD
         TM    ZLGSW,ZLGALT        ALTERNATE POSITION?
         BO    *+L'*+12            YES
         MVI   CURROW,CRZLSC       CURSOR ROW
         MVI   CURCOL,CCZLSC       CURSOR COLUMN
         B     *+L'*+8
         MVI   CURROW,CRALSC       ALTERNATE CURSOR ROW
         MVI   CURCOL,CCALSC       ALTERNATE CURSOR COLUMN
         L     R15,ARCOMM          GO COMMUNICATE
*- - - - ETPSCOMM PARM.LIST : NONE
        CALL   (15)
         LTR   R15,R15             BAD RC?
         BNZ   ZEXIT               YUP
         TM    COMMSW,PFKFLAG      IS IT A PF KEY/ATTN?
         BZ    ZLCKINPT            NOPE, GO CHECK THE INPUT
         L     R2,TERMINPT         PICK UP AID ADDRESS
         CLI   0(R2),X'F3'         IS IT PF3?
         BE    ZLCKINPT            YUP, LIKE ENTER
         CLI   0(R2),X'C3'         IS IT PF15?
         BE    ZLCKINPT            YUP, LIKE ENTER
         CLI   0(R2),X'6C'         IS IT PA1?
         BE    ZSCRBLD             YUP, FORCE LIKE NO VIEW / NO DELETE
         CLI   0(R2),X'6D'         IS IT "CLEAR"?
         BE    ZLGSBLD             YUP, RESHOW SCREEN
         CLI   0(R2),X'6E'         IS IT PA2?
         BE    ZLGSBLD             YUP, RESHOW SCREEN
         LA    R1,ZINVPFK
ZLSTMSG  ST    R1,MSGADD
         B     ZLGSBLD             RESHOW SCREEN
*- - - - CHECK ENTERED ZAP LOG SELECTIONS
ZLCKINPT NI    ZLGSW,255-ZLGALT-ZLGPOC RESET ALTERNATE AND CHANGED
         L     R5,TERMINPT+ZLZ1    PICK UP VIEWING FIELD
         L     R6,TERMINPT+ZLZ2    PICK UP DELETE FIELD
         CLI   SPLIT,2             AM I ON SCREEN 2?
         BNE   ZLCKINPV            NOPE
         L     R3,SCROWS1          PICK UP SIZE OF SCREEN 1
         SLL   R3,2                MULTIPLY BY 4
         L     R5,TERMINPT+ZLZ1(R3) PICK UP VIEWING FIELD
         L     R6,TERMINPT+ZLZ2(R3) PICK UP DELETE FIELD
ZLCKINPV CLI   0(R5),0             VIEWING ENTERED (OR CHANGED)?
         BE    ZLCKINPD            NO
         OI    ZLGSW,ZLGPOC        YES, SAY PANEL OPTION CHANGED
         LA    R0,L'ZLSCF1-1       LEFT JUSTIFY FIELD IF NEEDED
         CLI   ZLSCF1(R5),C' '
         BNE   ZLSTVW
         MVC   ZLSCF1(L'ZLSCF1-1,R5),ZLSCF1+1(R5)
         MVI   ZLSCF1+L'ZLSCF1-1(R5),C' '
         BCT   R0,*-18
ZRSTVW   NI    ZLGSW,255-ZLGVIEW   RESET VIEW REQUEST
         B     ZLCKINPD
ZLSTVW   CLI   ZLSCF1(R5),C'N'
         BE    ZRSTVW
         CLI   ZLSCF1(R5),C'Y'
         BE    *+L'*+8
         LA    R1,ZINVOPT
         B     ZLSTMSG
         OI    ZLGSW,ZLGVIEW       SET VIEW REQUESTED
ZLCKINPD CLI   0(R6),0             DELETE ENTERED?
         BE    ZLGOCHK             NO
         OI    ZLGSW,ZLGPOC        YES, SAY PANEL OPTION CHANGED
         LA    R0,L'ZLSCF2-1       LEFT JUSTIFY FIELD IF NEEDED
         CLI   ZLSCF2(R6),C' '
         BNE   ZLSTDL
         MVC   ZLSCF2(L'ZLSCF2-1,R6),ZLSCF2+1(R6)
         MVI   ZLSCF2+L'ZLSCF2-1(R6),C' '
         BCT   R0,*-18
ZRSTDL   NI    ZLGSW,255-ZLGDEL    RESET DELETE REQUEST
         B     ZLGOCHK
ZLSTDL   CLI   ZLSCF2(R6),C'N'
         BE    ZRSTDL
         CLI   ZLSCF2(R6),C'Y'
         BE    *+L'*+12
         OI    ZLGSW,ZLGALT
         LA    R1,ZINVOPT
         B     ZLSTMSG
         OI    ZLGSW,ZLGDEL        SET VIEW REQUESTED
ZLGOCHK  TM    ZLGSW,ZLGPOC        ANY OPTION CHANGED?
         BO    ZLGSBLD             YES, RESHOW
         TM    ZLGSW,ZLGVIEW+ZLGDEL HOW SELECTION IS?
         BZ    ZMKEPT              NO VIEW / NO DELETE
         TM    ZLGSW,ZLGVIEW       VIEW REQUESTED?
         BZ    ZBROWOK             NO
         ICM   R15,B'1111',ARBROWSE YES, VERIFY BROWSE AVAILABLE?
         BNZ   ZBROWOK             YES, OK
        LOAD   EP=ETPSBROW,ERRET=ZLDBRERR
         ST    R0,ARBROWSE         LOADED, OK
*- - - - PROCESS THE ZAP LOG DATA-SET
ZBROWOK  L     R7,DYNWORKP         INITIALIZE DYNAMIC ALLOCATION WORK
         LR    R2,R7
         LH    R3,=Y(PARMLLEN)     LENGTH TO BE CLEARED
         LA    R14,*
         XR    R15,R15
         ICM   R15,B'1000',=CL8' '
         MVCL  R2,R14              CLEAR TO ALL BLANKS
         USING PARMLIST,R7
         MVC   DSNAME,ZAPLGDSN     DS-NAME
         MVC   DSVOLSER,ZAPLGVOL   VOL-SER
         MVC   DSSTATUS,=CL8'SHR'  SET DISP=SHR
         TM    ZLGSW,ZLGDEL        DELETE REQUESTED?
         BZ    *+L'*+12            NO
         MVC   DSNDISP,=CL8'UNCATLG' YES, SET DISP=(SHR,UNCATLG,KEEP)
         MVC   DSADISP,=CL8'KEEP'
         L     R4,ACOPDCB          PICK UP LIBRARY ADDRESS
         MVC   DDNAME(L'DDNAME),DCBDDNAM-IHADCB(R4) DDNAME
         MVC   0(ZSQDCBL,R4),ZSQDCB MOVE DCB SKELETON
         MVC   DCBDDNAM-IHADCB(L'DCBDDNAM,R4),DDNAME SET BACK DDNAME
         L     R15,ARDYNAM
*- - - - ETPSDYNA PARM.LIST : "DYNWORKP" ADDRESS
        CALL   (15),MF=(E,DYNWORKP)
         LTR   R15,R15             HOW COMPLETE?
         BZ    ZALLOK              OK
        XMESS  3008
         TM    ZLGSW,ZLGVIEW       VIEW REQUESTED?
         BZ    *+L'*+8             NO
         LA    R1,ZALVMSG          YES
         B     ZASTMSG             YUP - ALL DONE
         LA    R1,ZALUMSG
         B     ZASTMSG             YUP - ALL DONE
ZALLOK   TM    ZLGSW,ZLGVIEW       VIEW REQUESTED?
         BZ    ZFREEDS             NO
         LA    R2,ZAPLGDSN         YES
         LA    R3,=CL8' '
         L     R15,ARBROWSE
*- - - - ETPSBROW PARM.LIST : DCB, DS-NAME, MEMBER-NAME
        CALL   (15),((R4),(R2),(R3)),VL,MF=(E,PARMVL)
ZFREEDS  LR    R0,R7               INITIALIZE DYNAMIC ALLOCATION WORK
         LH    R1,=Y(PARMLLEN)     LENGTH TO BE CLEARED
         LA    R14,*
         XR    R15,R15
         ICM   R15,B'1000',=CL8' '
         MVCL  R0,R14              CLEAR TO ALL BLANKS
         MVI   DSNAME,0            INDICATE FREE REQUEST
         MVC   DSNAME+1(L'DSNAME-1),DSNAME
         MVC   DDNAME(L'DDNAME),DCBDDNAM-IHADCB(R4) DDNAME
         L     R15,ARDYNAM
*- - - - ETPSDYNA PARM.LIST : "DYNWORKP" ADDRESS
        CALL   (15),MF=(E,DYNWORKP)
         LTR   R15,R15             HOW COMPLETE?
         BZ    ZFREEOK             OK
        XMESS  3009
         TM    ZLGSW,ZLGVIEW       VIEW REQUESTED?
         BZ    *+L'*+8             NO
         LA    R1,ZFLVMSG          YES
         B     ZASTMSG             YUP - ALL DONE
         LA    R1,ZFLUMSG
         B     ZASTMSG             YUP - ALL DONE
ZFREEOK  TM    ZLGSW,ZLGDEL        DELETE REQUESTED?
         BO    ZDELDS              YES
ZMKEPT   LA    R1,ZLKMSG           NO, KEPT
         B     ZASTMSG
ZDELDS   LR    R2,R7               INITIALIZE DYNAMIC ALLOCATION WORK
         LH    R3,=Y(PARMLLEN)     LENGTH TO BE CLEARED
         LA    R14,*
         XR    R15,R15
         ICM   R15,B'1000',=CL8' '
         MVCL  R2,R14              CLEAR TO ALL BLANKS
         USING PARMLIST,R7
         MVC   DSNAME,ZAPLGDSN     DS-NAME
         MVC   DSVOLSER,ZAPLGVOL   VOL-SER
         MVC   DSSTATUS,=CL8'SHR'  SET DISP=SHR
         MVC   DSNDISP,=CL8'DELETE' SET DISP=(SHR,DELETE,DELETE)
         MVC   DSADISP,=CL8'DELETE'
         L     R4,ACOPDCB          PICK UP LIBRARY ADDRESS
         MVC   DDNAME(L'DDNAME),DCBDDNAM-IHADCB(R4) GET DDNAME FOR USE
         L     R15,ARDYNAM
*- - - - ETPSDYNA PARM.LIST : "DYNWORKP" ADDRESS
        CALL   (15),MF=(E,DYNWORKP)
         LTR   R15,R15             HOW COMPLETE?
         BZ    ZDLAOK              OK
        XMESS  3008
         LA    R1,ZALDMSG
         B     ZASTMSG             YUP - ALL DONE
ZDLAOK   LR    R0,R7               INITIALIZE DYNAMIC ALLOCATION WORK
         LH    R1,=Y(PARMLLEN)     LENGTH TO BE CLEARED
         LA    R14,*
         XR    R15,R15
         ICM   R15,B'1000',=CL8' '
         MVCL  R0,R14              CLEAR TO ALL BLANKS
         MVI   DSNAME,0            INDICATE FREE REQUEST
         MVC   DSNAME+1(L'DSNAME-1),DSNAME
         MVC   DDNAME(L'DDNAME),DCBDDNAM-IHADCB(R4) DDNAME
         L     R15,ARDYNAM
*- - - - ETPSDYNA PARM.LIST : "DYNWORKP" ADDRESS
        CALL   (15),MF=(E,DYNWORKP)
         LTR   R15,R15             HOW COMPLETE?
         BNZ   *+L'*+8             WITH ERROR
         LA    R1,ZLDMSG           OK
         B     ZASTMSG             YUP - ALL DONE
        XMESS  3009
         LA    R1,ZFLDMSG
         B     ZASTMSG             YUP - ALL DONE
         DROP  R7
ZLDBRERR STM   R0,R1,MESSPL        BROWSE IS UNAVAILABLE
        XMESS  99,R15
         LA    R1,ZBUMSG
         B     ZASTMSG             YUP - ALL DONE
*- - - - TERMINATE ZAP PROCESSING
ZEXIT    L     R13,4(R13)          PICK UP CALLING SAVE-AREA
         LM    R14,R12,12(R13)     RESTORE CALLING REGISTERS
         XR    R15,R15             SET RETRUN CODE
         BR    R14                 NORMAL RETURN
         SPACE 1
ZDUMMY   DC    AL1(ZDUMMYL-1),X'04',CL9' '
ZDUMMYL  EQU   *-ZDUMMY
ZBADDSN  MSG   'DS-NAME ERROR'
ZVLMISS  MSG   'VOLUME MISSING'
ZINVPFK  MSG   'INVALID PF-KEY'
ZLKMSG   MSG   'ZAP "LOG" KEPT'
ZGMMSG   MSG   'ZAP GETMAIN ERROR'
ZLDMSG   MSG   'ZAP "LOG" DELETED'
ZBUMSG   MSG   'BROWSE UNAVAILABLE'
ZFLVMSG  MSG   'FREE "LOG"/V FAILED'
ZFLUMSG  MSG   'FREE "LOG"/U FAILED'
ZFLDMSG  MSG   'FREE "LOG"/D FAILED'
ZALVMSG  MSG   'ALLOC "LOG"/V FAILED'
ZALUMSG  MSG   'ALLOC "LOG"/U FAILED'
ZALDMSG  MSG   'ALLOC "LOG"/D FAILED'
ZINVOPT  MSG   'INVALID OPTION (N/Y)'
         PRINT &PRS
        LTORG
         PRINT &PRF
ZSQDCB  DCB    DSORG=PS,MACRF=(GM,PM),DDNAME=DUMMY,EODAD=*-*,SYNAD=*-*
ZSQDCBL  EQU   *-ZSQDCB
         SPACE 1
         DROP  R10,R11,R12,R13
         EJECT
*- - - - ZAP ENTRY SCREEN
         CNOP  0,4
ZAPSCR   DC    A(ZAROW1)
         DC    A(ZAROW2)
CRZASC   EQU   (*-ZAPSCR)/4        CURSOR ROW ON LINE BELOW
ZIZ1     EQU   (*-ZAPSCR)+4        "TERMINPT" DISPLACEMENT
         DC    A(ZAROW3)
ZIZ2     EQU   (*-ZAPSCR)+4        "TERMINPT" DISPLACEMENT
         DC    A(ZAROW4)
         DC    A(LNEBLK)
ZIZ3     EQU   (*-ZAPSCR)+4        "TERMINPT" DISPLACEMENT
         DC    A(EML+ZAROW5)
         SPACE 1
ZAROW1   DC    AL1(ZAROW1L-1)
         DC    XL1'05',10CL1'-'    PROTECT, HIGH-LIGHT
         DC    CL19' ZAP - ENTRY PANEL ',50CL1'-'
ZAROW1L  EQU   *-ZAROW1
ZAROW2   DC    AL1(ZAROW2L-1)
         DC    XL1'05',CL30'ENTER/VERIFY PARAMETERS BELOW:'
         DC    XL1'04',CL1' '
ZAROW2L  EQU   *-ZAROW2
ZAROW3   DC    AL1(ZAROW3L-1)
ZAOFF1   EQU   (*-ZAROW3)+1,10
         DC    XL1'04',CL20'FULLY-QUALIFIED NAME',XL1'05',CL3'==>'
CCZASC   EQU   (*-ZAROW3)          CURSOR COLUMN ON FIELD BELOW
ZASCF1   EQU   (*-ZAROW3)+1,54     INPUT FIELD 1
         DC    XL1'02',CL54' '
ZAROW3L  EQU   *-ZAROW3
ZAROW4   DC    AL1(ZAROW4L-1)
ZAOFF2   EQU   (*-ZAROW4)+10,13
         DC    XL1'04',CL22'         VOLUME SERIAL'
         DC    XL1'05',CL3'==>'
ZASCF2   EQU   (*-ZAROW4)+1,6      INPUT FIELD 2
         DC    XL1'02',CL6' '
         DC    XL1'04',CL45'          (IF NOT CATALOGED)'
ZAROW4L  EQU   *-ZAROW4
ZAROW5   DC    AL1(ZAROW5L-1)
ZAOFF3   EQU   (*-ZAROW5)+6,17
         DC    XL1'04',CL22'     DATA-SET PASSWORD'
         DC    XL1'05',CL3'==>'
ZASCF3   EQU   (*-ZAROW5)+1,8      INPUT FIELD 3
         DC    XL1'03',CL8' '      NO DISPLAY
         DC    XL1'04',CL37'        (IF PASSWORD PROTECTED)'
ZAOFF4   EQU   (*-ZAROW5)+1,3
         DC    XL1'04',CL3'(N)',XL1'04',CL1' '
ZAROW5L  EQU   *-ZAROW5
LNEBLK   DC    AL1(LNEBLKL-1),XL1'04',CL9' ' SF = PROT
LNEBLKL  EQU   *-LNEBLK
         EJECT
*- - - - ZAP ENTRY HELP SCREEN
         CNOP  0,4
ZAPHLP   DC    A(ZAPHL1)
         DC    A(HLPENT)
         DC    A(ZAPHL2)
         DC    A(ZAPHL3)
         DC    A(ZAPHL4)
         DC    A(LNEBLK)
         DC    A(ZAPHL5)
         DC    A(ZAPHL6)
         DC    A(LNEBLK)
         DC    A(EML+ZAPHL7)
         SPACE 1
ZAPHL1   DC    AL1(ZAPHL1L-1)
         DC    XL1'05',10CL1'-'    PROTECT, HIGH-LIGHT
         DC    CL19' ZAP - ENTRY PANEL ',50CL1'-'
ZAPHL1L  EQU   *-ZAPHL1
*                ----+----1----+----2----+----3----+----4----+----5----
*              +----6----+----7----+----
ZAPHL2   DC    AL1(ZAPHL2L-1),XL1'05'
         DC    C'THE ZAP PANEL PROVIDES FOR ENTERING THE DATA-SET NAME,X
                WHICH MUST BE A'
ZAPHL2L  EQU   *-ZAPHL2
ZAPHL3   DC    AL1(ZAPHL3L-1),XL1'05'
         DC    C'    FULLY-QUALIFIED DS-NAME (NEVER DELIMITED BY QUOTESX
               ).'
ZAPHL3L  EQU   *-ZAPHL3
ZAPHL4   DC    AL1(ZAPHL4L-1),XL1'05'
         DC    C'    A SPECIFIC VOL-SER MAY ALSO BE ENTERED, AND A PASSX
               WORD.'
ZAPHL4L  EQU   *-ZAPHL4
ZAPHL5   DC    AL1(ZAPHL5L-1),XL1'05'
         DC    C'TO ACCESS A VOLUME VTOC, TYPE AS DATA-SET NAME THE WORX
               D "VTOC" AND FILL IN THE'
ZAPHL5L  EQU   *-ZAPHL5
ZAPHL6   DC    AL1(ZAPHL6L-1),XL1'05'
         DC    C'    VOLUME SERIAL NUMBER YOU WANT.'
ZAPHL6L  EQU   *-ZAPHL6
ZAPHL7   DC    AL1(ZAPHL7L-1),XL1'05'
         DC    C'PF3 RETURNS TO THE PRIMARY OPTION MENU PANEL.'
ZAPHL7L  EQU   *-ZAPHL7
HLPENT   DC    AL1(HLPENTL-1),XL1'01',CL1' ',XL1'05',CL7' '
HLPENTL  EQU   *-HLPENT
         EJECT
*- - - - ZAP LOG ENTRY SCREEN
         CNOP  0,4
ZLGSCR   DC    A(ZLROW1)
         DC    A(ZLROW2)
         DC    A(LNEBLK)
CRZLSC   EQU   (*-ZLGSCR)/4        CURSOR ROW ON LINE BELOW
ZLZ1     EQU   (*-ZLGSCR)+4        "TERMINPT" DISPLACEMENT
         DC    A(ZLROW3)
         DC    A(LNEBLK)
CRALSC   EQU   (*-ZLGSCR)/4        ALTERNATE CURSOR ROW ON LINE BELOW
ZLZ2     EQU   (*-ZLGSCR)+4        "TERMINPT" DISPLACEMENT
         DC    A(EML+ZLROW4)
         SPACE 1
ZLROW1   DC    AL1(ZLROW1L-1)
         DC    XL1'05',10CL1'-'    PROTECT, HIGH-LIGHT
         DC    CL23' ZAP - ENTRY LOG PANEL ',46CL1'-'
ZLROW1L  EQU   *-ZLROW1
ZLROW2   DC    AL1(ZLROW2L-1)