         MACRO
&LABEL   $EPILOG &RC
&LABEL   LR    R1,R13              GET SAVEAREA ADDRESS
         L     R13,4(R13)          GET BACK CHAIN POINTER
         L     R0,16(R13)          GET SAVEAREA LENGTH
         ST    R15,16(R13)         SAVE REGISTER 15 (RETCODE)
         FREEMAIN R,LV=(0),A=(1)   FREE SAVEAREA
         LM    R14,R12,12(R13)     RESTORE CALLERS REGS
         AIF   (T'&RC EQ 'O').SPEC
         LA    R15,&RC             SET RETURN CODE
.SPEC    BR    R14                 RETURN TO CALLER
         MEND
         MACRO
&LABEL   $IN   &REG1=R14,&REG2=R15,&DEPTH=DEPTH,                       X
               &ENTRIES=ENTRIES,&EXITS=EXITS,&LREG=R9
         AIF   (T'&LABEL EQ 'O').ERR1   MUST HAVE A LABEL
&LABEL   LA    &REG1,&LABEL             GET SUBROUTINE ENTRY ADDR
         L     &REG2,&DEPTH             GET CURRENT NESTING DEPTH
         ST    &REG1,&ENTRIES.(&REG2)   SAVE ENTRY ADDR IN ENTRY TABLE
         ST    &LREG,&EXITS.(&REG2)     SAVE RETURN ADDR
         LA    &REG2,4(0,&REG2)         UPDATE NESTING FOR NEXT CALL
         ST    &REG2,&DEPTH              AND SAVE IT...
         MEXIT
.ERR1    MNOTE 8,'---> $IN MUST BE LABELLED'
.MEND    MEND
         MACRO
&LAB    $MESSAGE &MSGNO,&SKIP=0,&DATA=
         PUSH  PRINT
         PRINT GEN
         AIF   (T'&DATA EQ 'O').NODATA
         LA    R2,&DATA
.NODATA  LM    R15,R1,=A(MESGRTN,&SKIP,&MSGNO)
         BASR  R14,R15
         POP   PRINT
         MEND
         MACRO
&LABEL   $OUT  &REG1=R14,&DEPTH=DEPTH,                                 X
               &EXITS=EXITS,&LREG=R9
&LABEL   L     &REG1,&DEPTH             GET CURRENT NESTING DEPTH
         S     &REG1,=F'4'              BACKUP TO OUR CALLER
         ST    &REG1,&DEPTH             AND SAVE NEW DEPTH
         L     &LREG,&EXITS.(&REG1)     PICK UP OUR RETURN ADDR
         BR    &LREG                    AND GO THERE.
         MEND
         MACRO
&NAME    $PROLOG &LV=0
.**********************************************************************
.*
.*       THIS MACRO WILL PROVIDE ENTRY LINKAGE AND OPTIONALLY
.*       MULTIPLE BASE REGISTERS.  ALSO, VIA THE 'LV=' KEYWORD
.*       PROVIDE ADDITIONAL USER STORAGE (APPENDED TO THE
.*       SAVE AREA) ADDRESSABLE FROM REG 13.  IF NO OPERANDS
.*       ARE CODED, REG 12 IS ASSUMED THE BASE. EXAMPLE:
.*              SECTNAME $PROLOG          = STANDARD REG 12 BASE
.*              SECTNAME $PROLOG 5        = STANDARD, REG 5 BASE
.*              SECTNAME $PROLOG 10,LV=20 = ADD 20 BYTES TO SAVE AREA
.*                                             REG 10 IS BASE
.*              SECTNAME $PROLOG R10,R11  = REGS 10 AND 11 ARE BASES
.*
.**********************************************************************
         LCLA  &AA,&AB,&AC
         LCLC  &LABEL                                              -EU-
         GBLB  &PRORG
&AC      SETA  4096
         AIF   ('&NAME' NE '').EU1                                 -EU-
&LABEL   SETC  '&SYSECT'                                           -EU-
         AGO   .EU2                                                -EU-
.EU1     ANOP  ,                                                   -EU-
&LABEL   SETC  '&NAME'                                             -EU-
&LABEL   CSECT
.EU2     B     32(R15)             BRANCH AROUND                   -EU-
         DC    AL1(26)
         DC    CL8'&LABEL'         CSECT NAME
         DC    C'-'
         DC    CL8'&SYSDATE'       COMPILE DATE
         DC    C'-'
         DC    CL8'&SYSTIME'       COMPILE TIME
         CNOP  0,4                 ALIGNMENT
         STM   R14,R12,12(R13)     SAVE REGISTERS
         LR    R12,R15             LOAD BASE REG
         USING &LABEL,R12          INFORM ASSEMBLER
         AIF   (&LV GT 4023).MERR
         LA    R0,&LV+72           LOAD REG 0 WITH LENGTH VARIABLE
         GETMAIN R,LV=(0)          GET CORE FOR SAVEAREA AND USER
         AIF   (&LV+72 LE 256).XC2
         AIF   (&LV+72 LE 512).XC1
         MVI   0(R1),X'00'         MOVE X'00' TO FIRST BYTE
         LR    R2,R1               SAVE POINTER IN EVEN REG
         LA    R4,1(R1)            SET RECEIVING POINTER
         LR    R5,R0               SET RECEIVING LENGTH
         BCTR  R5,R0               DECREMENT LENGTH
         LA    R5,0(R5)            CLEAR HIGH ORDER BYTE
         LA    R3,1                SET SENDING LENGTH
         MVCL  R4,R2               INSTRUCTION PADS WITH X'00'
         AGO   .STORE
.XC1     XC    256(&LV-184,R1),256(R1)  CLEAR SAVE AREA
         XC    0(256,R1),0(R1)          CLEAR SAVE AREA
         AGO   .STORE
.XC2     XC    0(&LV+72,R1),0(R1)       CLEAR SAVE AREA
.STORE   ST    R13,4(R1)           SAVE BACK CHAIN
         ST    R1,8(R13)           SET FORWARD CHAIN
         LR    R11,R1              SAVE NEW SAVEAREA ADDRESS
         L     R15,16(R13)         RESTORE REG 15
         ST    R0,16(R13)          SAVE SAVEAREA LENGTH
         LM    R0,R1,20(R13)       RESTORE REGS USED IN GETMAIN
         LR    R13,R11             SET SAVEAREA POINTER
         AIF   (N'&SYSLIST EQ 0).MEND
         AIF   ('&SYSLIST(1)' EQ 'R12').SKIPIT
         AIF   ('&SYSLIST(1)' EQ '12').SKIPIT
         LA    &SYSLIST(1),&LABEL  LOAD REQUESTED BASE REG
         DROP  R12                 DROP ASSUMED BASE REG
         USING &LABEL,&SYSLIST(1)  INFORM ASSEMBLER
.SKIPIT  ANOP
&AA      SETA  2
.LOOP    AIF   (&AA GT N'&SYSLIST).MEXIT
&AB      SETA  &AA-1
         LA    &SYSLIST(&AA),2048(&SYSLIST(&AB))  LOAD NEXT BASE REG
         LA    &SYSLIST(&AA),2048(&SYSLIST(&AA))  LOAD NEXT BASE REG
         USING &LABEL+&AC,&SYSLIST(&AA) INFORM ASSEMBLER
&AC      SETA  &AC+4096
&AA      SETA  &AA+1
         AGO   .LOOP
.MEXIT   AIF   (&PRORG).MEX2
         SPACE
         $REGS
         SPACE
.MEX2    ANOP
&AA      SETA  &LV+72
         MNOTE *,'---> TOTAL STORAGE AREA RECEIVED = &AA'
         MEXIT
.MEND    MNOTE *,'---> NO REGISTER SPECIFIED - R12 ASSUMED'
         AGO   .MEXIT
.MERR    MNOTE 12,'---> LV > 4023 - REQUEST IGNORED'
         AGO   .MEXIT
         MEND
         MACRO
         $REGS
         GBLB  &PRORG
         AIF   (&PRORG).MEX2
&PRORG   SETB  1
         SPACE 1
R0       EQU   0
R1       EQU   1
R2       EQU   2
R3       EQU   3
R4       EQU   4
R5       EQU   5
R6       EQU   6
R7       EQU   7
R8       EQU   8
R9       EQU   9
R10      EQU   10
R11      EQU   11
R12      EQU   12
R13      EQU   13
R14      EQU   14
R15      EQU   15
         SPACE 1
REG0     EQU   0
REG1     EQU   1
REG2     EQU   2
REG3     EQU   3
REG4     EQU   4
REG5     EQU   5
REG6     EQU   6
REG7     EQU   7
REG8     EQU   8
REG9     EQU   9
REG10    EQU   10
REG11    EQU   11
REG12    EQU   12
REG13    EQU   13
REG14    EQU   14
REG15    EQU   15
.MEX2    SPACE 1
         MEND
         MACRO
&NAME    ALLOC &DUMMY,&PERM,&DSN=,&DDN=,&DDNRET=,&MEMBER=,&DISP=,      X
               &TERM=,                                       CBOC      X
               &VOL=,&UNIT=,&SYSOUT=,&FREE=,&COPIES=,&LABEL=,          X
               &BLKSIZE=,&DEN=,&DSORG=,&KEYLEN=,&LRECL=,&RECFM=,       X
               &PASWORD=,&DSNRET=,&MF=AUTO,&PREFIX=,&ERROR=,           X
               &SPACE=,&F=,&FILE=,&DA=,&QNAME=,&DSORGRT=,              X
               &VOLRET=,&DCBDSN=,&DCBDDN=,&SPECIAL=,&DDNTO=,           X
               &FORMS=,&DEST=,&SSREQ=,&FORUSER=,&TU=,&DSNPDE=
.**********************************************************************
.*                                                                    *
.*    THIS MACRO PROVIDES A DYNAMIC ALLOCATION FUNCTION BY BUILDING   *
.*    A DYNAMIC ALLOCATION PARAMETER LIST AND INVOKING SVC 99.        *
.*    IT FIRST SETS UP A WORKAREA ENVIRONMENT FOR THE PARAMETER LIST  *
.*    AND THEN TESTS THE KEYWORDS SUPPLIED AND INVOKES INNER MACROS   *
.*    TO BUILD THE TEXT UNITS. THE INNER MACROS THEMSELVES USE INNER  *
.*    MACROS TO UPDATE GLOBAL VARIABLES, STORE TEXT UNIT POINTERS ETC *
.*    THERE ARE THREE WAYS OF SPECIFYING THE WORK AREA ADDRESS.       *
.*    A) MF=AUTO, MF=G, MF=(E,ADDRESS,LNTHSYMB).                      *
.*    IN THE FIRST FORM, AN INNER MACRO DYNSPACE IS CALLED TO NAME    *
.*    A WORK AREA, THE NAME BEING RETURNED IN THE GLOBAL SETC         *
.*    VARIABLE &DYNSP. A DSECT IS CREATED TO MAP THIS AREA.           *
.*    THE GLOBAL VARIABLES &DTUO (TEXT UNIT OFFSET COUNTER) AND       *
.*    &DTUPO (TEXT UNIT POINTER OFFSET ACCUMULATOR) ARE SET TO ZERO.  *
.*    THESE ACCUMULATORS ARE UPDATED AS EACH TEXT UNIT PROCESSOR      *
.*    AQUIRES STORAGE. AFTER ALL TEXT UNITS HAVE BEEN BUILT, THE      *
.*    AMOUNT OF SPACE USED IS CALCULATED, AND THE DYNSPACE MACRO IS   *
.*    THEN CALLED AGAIN TO LOG THE AMOUNT NEEDED. DYNSPACE SETS A     *
.*    GLOBAL VARIABLE &DYNSPQ TO THE HIGHEST AMOUNT ANY ALLOC OR      *
.*    FREE MACRO REQUESTED, AND WHEN CALLED WITH THE EXPAND OPTION,   *
.*    (NO OPERANDS OR NAME FIELD SUPPLIED), EXPANDS INTO A DS FOR     *
.*    THAT QUANTITY. (SEE DYNSPACE)                                   *
.*    MF=G SPECIFIES THAT THE ALLOC MACRO ENTER THE BEGIN MACRO       *
.*    WORKAREA TO ACQUIRE THE STORAGE NECESSARY. IT DOES THIS VIA     *
.*    THE RCPDS MACRO. (SEE RCPDS). HOWEVER, IF THE ALLOC MACRO IS    *
.*    CALLED SEVERAL TIMES WITH THIS OPTION, A LOT OF STORAGE WILL BE *
.*    USED UP, AS THE STORAGE WILL NOT BE SHARED. THUS, THIS FORM     *
.*    SHOULD ONLY BE USED IF THE ALLOC/FREE MACRO IS ONLY TO BE USED  *
.*    ONCE OR TWICE DURING AN ASSEMBLY.                               *
.*    MF=E CAUSES THE MACRO TO USE A USER SPECIFIED WORK AREA. THE    *
.*    SECOND PARAMETER GIVES THE NAME OF THE WORKAREA, AND AN         *
.*    OPTIONAL THIRD PARAMETER IS THE NAME OF A SYMBOL TO BE EQUATED  *
.*    TO THE LENGTH OF THE REQUIRED WORK AREA.                        *
.*                                                                    *
.*    DYNAMIC ALLOCATION FUNCTIONS ARE SIMILAR TO THOSE AVAILABLE    *
.*    WITH JCL, USING THE SAME KEYWORDS. HOWEVER, CERTAIN FORMATS    *
.*    ARE SLIGHTLY DIFFERENT. FOR INSTANCE, CERTAIN KEYWORDS CAN     *
.*    HAVE VARYING PARAMETERS, EG DATASET NAME, DDNAME, VOLSER ETC.  *
.*    PROVISION IS MADE FOR BOTH VARIABLE SPECIFICATION.             *
.*    IN THE ABSOLUTE FORM, THE PARAMETER IS ENTERED IN QUOTES,      *
.*    E.G.   ALLOC DSN='SYS1.LINKLIB',DISP=SHR                       *
.*    HOWEVER, THIS NAME REMAINS FIXED FOR THE ASSEMBLY.             *
.*    IN THE VARIABLE FORMAT, THE ADDRESS OF A LOCATOR IS SPECIFIED, *
.*    WHERE THE LOCATOR CONSISTS OF A SIX BYTE FIELD, THE FIRST 4    *
.*    BYTES OF WHICH POINT TO THE PARAMETER, WHILE THE NEXT TWO      *
.*    CONTAIN THE LENGTH.                                            *
.*    EG          ALLOC DSN=LOCATOR                                  *
.*       LOCATOR  DC    A(DSN),Y(12)                                 *
.*       DSN      DC    C'SYS1.LINKLIB'                              *
.*                                                                   *
.*       NUMERIC QUANTITIES E.G. COPIES= FOR SYSOUT, SHOULD EITHER   *
.*       SPECIFY A NUMERIC VALUE, COPIES=3,                          *
.*       A VALUE IN A REGISTER, COPIES=(R3),                         *
.*       OR THE NAME OFF A FULLWORD CONTAINING THE VALUE,            *
.*          COPIES=NUMCOPYS, WHERE NUMCOPYS IS THE NAME OF A         *
.*       FULLWORD FIELD.                                             *
.*                                                                   *
.*       OTHER KEYWORDS SUCH AS DISP= CAN ONLY HAVE THE ABSOLUTE     *
.*       FORM, AND VALUES SHOULD NOT BE ENTERED WITHIN QUOTES.       *
.*       ADDITIONAL FACILITIES NOT AVAILABLE WITH JCL ARE THE        *
.*       RETURN BY THE SYSTEM OF INFORMATION ON THE DATASET, EG      *
.*       DSORG. THIS IS DONE BY SPECIFYING DSORGRT=SYMBOL, WHERE     *
.*       SYMBOL IS A SYMBOL WHICH WILL BE EQUATED TO A TWO BYTE      *
.*       FIELD CONTAINING THE DSORG TYPE (SEE JOB MANAGEMENT,        *
.*       SUPERVISOR AND TSO).                                        *
.*       THE SYSTEM CAN ALSO GENERATE AND RETURN A DDNAME. THIS IS   *
.*       CARRIED OUT BY ENTERING DDNTO=(ADDR1,ADDR2,,...)            *
.*       WHERE ADDR1,ADDR2 ETC ARE THE NAMES OF 8 BYTE FIELDS WHICH  *
.*       ARE TO RECEIVE THE DDNAME.                                  *
.*       FOR FURTHER INFORMATION ON DYNAMIC ALLOCATION, SEE          *
.*       JOB MANAGEMENT, SUPERVISOR AND TSO.                         *
.*                                                                   *
.**********************************************************************
         GBLA  &RCPDYN            COUNTER FOR NO ENTRIES TO MACRO
         GBLA  &DTUO              OFFSET TO TEXT UNITS
         GBLA  &DTUPO             OFFSET TO TEXT UNIT POINTERS
         GBLB  &RCPS99(2)         TELL RCPDSECT NEED DSECTS
         GBLC  &DYNP              PREFIX FOR LABELS FOR THIS CALL
         GBLC  &DYNSP         NAME FOR AUTOMATIC STORAGE ALLOC
         LCLA  &DDNRTO,&DSNRTO         FOR EQUATES FOR RETURNED FLDS
         LCLA  &VOLRTO,&DSRGRTO        FOR EQUATES FOR RETURNED FIELDS
         LCLA  &I                 COUNTER
         LCLB  &DSECT             DSECT NEEDED FOR STORAGE, MF=E
         LCLC  &C,&T,&PAR
.*
.*   THE ALLOC MACRO PROVIDES A DYNAMIC ALLOCATION FUNCTION,
&RCPS99(1)     SETB           1
&RCPDYN  SETA  &RCPDYN+1          INCEREMENT COUNTER
&DYNP    SETC  'DYN&RCPDYN' SET DEFAULT PREFIX
&NAME    DS    0H
         AIF   ('&PREFIX' EQ '').TMF
         AIF   (K'&PREFIX LT 4).POK
         MNOTE 4,'---> PREFIX TOO LONG, 1ST 4 CHARS USED'
&DYNP    SETC  '&PREFIX'(1,4)
         AGO   .TMF
.POK     ANOP
&DYNP    SETC  '&PREFIX'
.TMF     AIF   ('&MF(1)' EQ 'G').GEN
         AIF   ('&MF' NE 'AUTO').TMFE
NAME     DYNSPACE             GET NAME FOR SPACE
         LA    R1,&DYNSP               LOAD ADDRESS OF PARAM LIST
         USING &DYNP.DS,R1             USE GENERATED DSECT
&T       SETC  'A'
&PAR     SETC  '&DYNSP+4'
&DSECT   SETB  1
         AGO   .START
.TMFE    AIF   ('&MF(2)' NE '').E2OK
         MNOTE 4,'---> PLIST ADDRESS OMITTED, MF=G USED'
         AGO   .GEN
.E2OK    ANOP
&DSECT   SETB  1
         AIF   ('&MF(2)' EQ '(').RMFE
         LA    R1,&MF(2)               LOAD PARAM LIST ADDRESS
         USING &DYNP.DS,R1             USE GENERATED DSECT
         AGO   .START
.RMFE    AIF   ('&MF(2)' EQ '(R1)' OR '&MF(2)' EQ '(1)').START
         LR    R1,&PAR                 LOAD S99 PARAM LIST ADDRESS
         AGO   .START
.GEN     LA    R1,&DYNP.RBP            LOAD ADDRESS OF S99 RBP
.START   LA    R15,&DYNP.RB            LOAD ADDRESS OF S99 RB
         USING S99RB,R15
         ST    R15,0(R1)               AND STORE IN RB POINTER
         XC    4(&DYNP.LEN-4,R1),4(R1) ZERO PARAMETER LIST
         MVI   S99RBLN,20              MOVE IN LIST LENGTH
         MVI   S99VERB,S99VRBAL        MOVE IN VERB CODE
         LA    R14,&DYNP.TUP           LOAD ADDRESS OF TU POINTERS
         ST    R14,S99TXTPP            STORE ADDRESS IN S99 RB
         LA    R15,&DYNP.TU            POINT TO SPACE FOR TEXT UNITS
         USING S99TUNIT,R15
&DTUO    SETA  0
&DTUPO   SETA  0
         AIF   ('&SSREQ' EQ 'YES').SSREQ
.TDSN    AIF   ('&DSN&DA' NE '').DSN
         AIF   ('&DSNPDE' NE '').DSNPDE
         AIF   ('&DSNRET' NE '').DSNRT
         AIF   ('&TERM' NE '').TERM             CBOC......
         AIF   ('&SYSOUT' NE '').SYSOUT
         AIF   ('&DUMMY' NE '').DUMMY
         AIF   ('&QNAME' NE '').QNAME
.TDDN    AIF   ('&DDN&FILE&F' NE '').DDN
         AIF   ('&DDNRET&DDNTO' NE '').DDNRT
.TUNIT   AIF   ('&UNIT&VOL' NE '').UNIT
.TVOLRET AIF   ('&VOLRET' NE '').VOLRET
.TDSRGO  AIF   ('&DSORGRT' NE '').DSORGRT
.TLABEL  AIF   ('&LABEL' NE '').LABEL
.TPSWD   AIF   ('&PASWORD' NE '').PASWORD
.TFORUSE AIF   ('&FORUSER' NE '').FORUSER
.TTU     AIF   ('&TU' NE '').TU
.TDISP   AIF   ('&DISP' NE '').DISP
.TSPACE  AIF   ('&SPACE' NE '').SPACE
.TLRECL  AIF   ('&LRECL' NE '').DCB
         AIF   ('&DEN' NE '').DCB
         AIF   ('&RECFM' NE '').DCB
         AIF   ('&BLKSIZE' NE '').DCB
         AIF   ('&DSORG' NE '').DCB
         AIF   ('&KEYLEN' NE '').DCB
.TDCBDSN AIF   ('&DCBDSN' NE '').DCBDSN
.TDCBDDN AIF   ('&DCBDDN' NE '').DCBDDN
.TFREE   AIF   ('&FREE' EQ 'CLOSE').FREE                         TE7343
.TPERM   AIF   ('&PERM' EQ 'PERM' OR '&PERM' EQ 'PERMANENT').PERM
         AIF   ('&DUMMY' EQ 'PERM' OR '&DUMMY' EQ 'PERMANENT').PERM
.TSPECI  AIF   ('&SPECIAL' NE '').SPECIAL
         AGO   .SVC99
.SSREQ   RCPSSREQ
         AGO   .TDSN
.DSN     RCPDSN &DSN&DA,&MEMBER
         AGO   .TDDN
.DSNPDE  RCPDSNPD &DSNPDE
         AGO   .TDDN
.DSNRT   RCPDSNRT &DSNRET
&DSNRTO  SETA  &DTUO-46
         AGO   .TDDN
.SYSOUT  RCPSYSOU &SYSOUT,COPIES=&COPIES,FREE=&FREE,DEST=&DEST,        X
               FORMS=&FORMS
         AGO   .TDDN
.TERM    RCPTERM &TERM           CBOC....
         AGO   .TDDN             CBOC..
.DUMMY   RCPDUMMY &DUMMY
         AGO   .TDDN
.QNAME   RCPQNAME &QNAME
         AGO   .TDDN
.DDN     RCPDDN &DDN&F&FILE
         AGO   .TUNIT
.DDNRT   RCPDDNRT &DDNRET
&DDNRTO  SETA  &DTUO-10
         AGO   .TUNIT
.UNIT    RCPUNIT &UNIT,&VOL
         AGO   .TVOLRET
.VOLRET  RCPVOLRT &VOLRET
&VOLRTO  SETA  &DTUO-8
         AGO   .TDSRGO
.DSORGRT RCPDSRGR
&DSRGRTO SETA  &DTUO-2
         AGO   .TLABEL
.LABEL   RCPLABEL &LABEL
         AGO   .TPSWD
.PASWORD RCPPSWD &PASWORD
         AGO   .TFORUSE
.FORUSER RCPFORUS &FORUSER
         AGO   .TTU
.TU      RCPTU &TU
         AGO   .TDISP
.DISP    RCPDISP &DISP
         AGO   .TSPACE
.SPACE   RCPSPACE &SPACE
         AGO   .TLRECL
.DCB     RCPDDCB LRECL=&LRECL,DEN=&DEN,RECFM=&RECFM,BLKSIZE=&BLKSIZE,  X
               DSORG=&DSORG,KEYLEN=&KEYLEN
         AGO .TDCBDSN
.DCBDSN  RCPDCBDS &DCBDSN
         AGO .TDCBDDN
.DCBDDN  RCPDCBDD &DCBDDN
         AGO .TFREE                                              TE7343
.FREE    RCPFREE  &FREE                                          TE7343
         AGO   .TPERM
.PERM    RCPPERM
         AGO   .TSPECI
.SPECIAL RCPSPEC &SPECIAL
.SVC99   ANOP
&DTUPO   SETA  &DTUPO-4
         SPACE
         MVI   &DYNP.TUP+&DTUPO,X'80'  SET HIGH ORDER BIT ON TEXT PTRS
         MVI   &DYNP.RBP,X'80'         SET HIGH ORDER BIT ON RB PTR
         RCPSR2 UNSAVE
&DTUPO   SETA  &DTUPO+4
         AIF   (NOT &DSECT).DYNA
         DROP  R1,R15                  DEACTIVATE ADDRESSABILITY
         LA    R14,4(R1)               POINT TO REQUEST BLOCK
.DYNA    DYNALLOC
         AIF   (NOT &DSECT).LTR
         USING &DYNP.RB,R14            SET UP ADDRESSABILITY
**       NOTE  R14 HAS RB ADDRESS, R15 HAS SVC 99 RETURN CODE        **
.LTR     AIF   ('&ERROR' EQ '').TDDTO
         LTR   R15,R15                 TEST RETURN CODE
         BNZ   &ERROR                  BRANCH IF NON ZERO
.TDDTO   AIF   ('&DDNTO' EQ '').RESERVE
&I       SETA  0
.DDNTOL  ANOP
&I       SETA  &I+1
         AIF   ('&DDNTO(&I)' EQ '').RESERVE
         AIF   ('&DDNTO(&I)'(1,1) EQ '(').DDNTOR
         MVC   &DDNTO(&I).(8),&DYNP.TU+&DDNRTO+2
         AGO   .DDNTOL
.DDNTOR  ANOP
&C       SETC  '&DDNTO(&I)'(2,K'&DDNTO(&I)-2)
         MVC   0(8,&C),&DYNP.TU+&DDNRTO+2
         AGO   .DDNTOL
.RESERVE AIF   (&DSECT).RESDS
         SPACE 1
***********************************************************************
**       RESERVE SPACE FOR DYNALLOC PARAMETER LIST                   **
***********************************************************************
         RCPDS
.SSP     ANOP
&DYNP.RBP DS   F                       SVC 99 REQ BLOCK POINTER
&DYNP.RB  DS   5F                      SVC 99 REQUEST BLOCK
&DYNP.TUP DS   CL&DTUPO                SPACE FOR TEXT POINTERS
         AIF   (&DTUO EQ 0).DTU21
&DYNP.TU  DS   CL&DTUO                 SPACE FOR TEXT UNITS
         AIF   (&DSNRTO EQ 0).TDDNRTO
&DSNRET  EQU   &DYNP.TU+&DSNRTO        OFFSET TO RETURNED DSN
.TDDNRTO AIF   ('&DDNRET' EQ '').DTU11
&DDNRET  EQU   &DYNP.TU+&DDNRTO        OFFSET TO RETURNED DDNAME
.DTU11   AIF   (&VOLRTO EQ 0).DTU12
&VOLRET  EQU   &DYNP.TU+&VOLRTO        OFFSET TO RETURNED VOLSER
.DTU12   AIF   (&DSRGRTO EQ 0).DTU10
&DSORGRT EQU   &DYNP.TU+&DSRGRTO       OFFSET TO RETURNED DSORG
         AGO   .DTU10
.DTU21   ANOP
&DYNP.TU  DS   0C                      NO SPACE NEEDED FOR TEXT UNITS
.DTU10   ANOP
&DYNP.LEN EQU  *-&DYNP.RBP             LENGTH OF SPACE USED
         AIF   (&DSECT).DSP
         RCPDS
         SPACE 2
         AGO   .EXIT
.RESDS   ANOP
         AIF   ('&DYNSP' EQ '').SP3
         DYNSPACE ADD
.SP3     SPACE 1
&DYNP.DS DSECT                         DSECT TO MAP SVC 99 DATA
         AGO   .SSP
.DSP     AIF   ('&MF(3)' EQ '').END1
&MF(3)   EQU   &DYNP.LEN               LENGTH OF AREA
.END1    ANOP
&SYSECT  CSECT
         SPACE 2
.EXIT    MEND
         MACRO
&NAME    DYNSPACE &TYPE
.*
.*    THIS IS AN INNER MACRO TO ALLOC/FREE.
.*    IT IS CALLED TO   A) NAME AN AREA FOR THE PARMLIST
.*                      B) LOG THE VARIOUS AMOUNTS NEEDED BY
.*                         EACH, REMEMBERING THE LARGEST.
.*                      C) GENERATING A DS FOR THE LARGEST AMOUNT.
.*    THE FIRST TWO FUNCTIONS ARE INVOKED BY ALLOC/FREE MACROS ONLY,
.*    AND THE THIRD IS USED BY THE PROGRAMMER, EITHER EXPLICITLY,
.*    OR BY BEGINWKA, IF THE LATTER IS USED.
.*
.*     TO INVOKE THE NAMING FUNCTION, ALLOC/FREE GENERATE
.*     NAME DYNSPACE
.*     NOTE. THE NAMING OPERATION ONLY GENERATES A NAME ON THE
.*     FIRST CALL IN THE ASSEMBLY. THE NAME REMAINS THE SAME UNTIL
.*     DYNSPACE IS CALLED TO EXPAND INTO A DS.
.*
.*     THE SECOND FUNCTION IS INVOKED BY THE MACRO CALL
.*          DYNSPACE ADD
.*     (NO NAME FIELD AND ONE OPERAND)
.*     IT USES THE GLOBAL VARIABLES &DTUO AND &DTUPO TO CALCULATE
.*     THE SPACE FOR THIS REQUEST, AND UPDATES &DYNSPQ ONLY IF THE
.*     CURRENT REQUEST IS FOR A GREATER AMOUNT
.*
.*     THE THIRD FUNCTION IS INVOKED BY CALLING DYNSPACE WITH NO
.*     NAME OR OPERAND FIELD.
.*     THIS EXPANDS INTO A DEFINE STORAGE, CLEARS THE DYNSPACE NAME
.*     GLOBAL SETC, AND THE &DYNSPQ GLOBAL SETA.
.*     THUS, THE MACRO IS SERIALLY REUSABLE IN ALL FUNCTIONS.
.*
         GBLA  &DYNSPQ,&DTUO,&DTUPO,&RCPDYN
         GBLC  &DYNP,&DYNSP
         LCLA  &I
         AIF   ('&NAME' NE '').NAME
         AIF   ('&TYPE' EQ '').ALLOC
.*       THE ACCUMULATE FUNCTION IS REQUIRED
&I       SETA  24+&DTUO+&DTUPO         GET AMOUNT FOR THIS REQUEST
         AIF   (&I LE &DYNSPQ).EXIT    IF CURRENT < MAX, EXIT
&DYNSPQ  SETA  &I                      ELSE UPDATE CURRENT MAXIMUM
         MEXIT
.NAME    AIF   ('&DYNSP' NE '').EXIT   IF NAME ALREADY EXISTS, EXIT
&DYNSP   SETC  'DYNSP&RCPDYN'          ELSE GENERATE A NAME
.EXIT    MEXIT
.ALLOC   AIF   ('&DYNSP' EQ '').EXIT
*
***      RESERVE SPACE FOR ALLOC/FREE MACRO WORK AREA
*
&DYNSP   DS    0F,CL&DYNSPQ            RESERVE SPACE
&DYNSP   SETC  ''                      SET MAX QUANTITY TO 0
&DYNSPQ  SETA 0
         MEND
         MACRO
&NAME    EDIT  &PR,&NUM,&ED
         LCLA  &A1,&A2,&A3,&A4
         LCLB  &B1,&B2
         LCLC  &C1,&C2,&C3
         ACTR  200
         AIF   (N'&SYSLIST EQ 2 AND K'&ED EQ 0).ANOP1
         AIF   (N'&SYSLIST NE 3).MNOTE1
         AIF   ('&ED'(1,1) EQ '-' OR '&ED'(1,1) EQ '$').EDMK
.ANOP1   ANOP
&A1      SETA  &A1+1
         AIF   (K'&ED LT &A1).CONT
&A2      SETA  &A2+1
&A4      SETA  &A4+1
         AIF   ('&ED'(&A1,1) NE 'Z' AND '&ED'(&A1,1) NE '&C2').NINE
.ANOP2   ANOP
&C1      SETC  '&C1.20'
         AGO   .ANOP1
.NINE    AIF   ('&ED'(&A1,1) NE '9').PER
         AIF   (&B1).ANOP2
&B1      SETB  1
         AIF   (&A1 EQ 1).SIGNIF
         AIF   (&A1 EQ 2 AND &B2).SIGNIF
&C3      SETC  '&C1'(&A4*2-3,2)
         AIF   ('&C3' NE '20').NINE2
&C1      SETC  '&C1'(1,&A4*2-4).'2120'
         AGO   .ANOP1
.NINE2   ANOP
&C1      SETC  '&C1'(1,&A4*2-6).'21&C3.20'
         AGO   .ANOP1
.SIGNIF  ANOP
&C1      SETC  '21'
         AGO   .ANOP1
.PER     AIF   ('&ED'(&A1,1) NE '.').COMMA
&C1      SETC  '&C1.4B'
&A2      SETA  &A2-1
         AGO   .ANOP1
.COMMA   AIF   ('&ED'(&A1,1) NE 'V').SLASH
&C1      SETC  '&C1.6B'
&A2      SETA  &A2-1
         AGO   .ANOP1
.SLASH   AIF   ('&ED'(&A1,1) NE '/').DBCR
&C1      SETC  '&C1.61'
&A2      SETA  &A2-1
         AGO   .ANOP1
.DBCR    AIF   (&A1+1 NE K'&ED).MNOTE2
         AIF   ('&ED'(&A1,2) NE 'CR').DB
&C1      SETC  '&C1.C3D9'
&A2      SETA  &A2-1
         AGO   .CONT
.DB      AIF   ('&ED'(&A1,2) NE 'DB').MNOTE2
&C1      SETC  '&C1.C4C2'
&A2      SETA  &A2-1
.CONT    ANOP
&C3      SETC  '&PR'
         AIF   (L'&NUM*2-1 NE &A2).EDSIZE
.ENDCHEC ANOP
&A2      SETA  0
         AIF   (K'&C1/2+1 NE L'&PR).AREASIZ
.LAST    AIF   (&B2).EDMKEND
&NAME    MVC   &C3,=X'40&C1'
         ED    &C3,&NUM
         MEXIT
.EDSIZE  AIF   (L'&NUM*2-1 LT &A2).LONG
.SHORT   ANOP
&C1      SETC  '20&C1'
&A3      SETA  &A3+1
         AIF   (L'&NUM*2-1 GT &A2+&A3).SHORT
         AGO   .ENDCHEC
.LONG    ANOP
&C1      SETC  '&C1'(3,K'&C1-2)
&A3      SETA  &A3+1
         AIF   (L'&NUM*2-1 LT &A2-&A3).LONG
         AGO   .ENDCHEC
.AREASIZ AIF   (K'&C1/2+1 LT L'&PR).LESS
&A2      SETA  K'&C1/2+1-L'&PR
&A3      SETA  K'&C1/2+1
&C3      SETC  '&C3-&A2.(&A3)'
&B1      SETB  1
         AGO   .LAST
.LESS    ANOP
&B1      SETB  0
&A3      SETA  K'&C1/2+1
         AIF   (K'&C1/2+5 GE L'&PR).PLUSET
&C3      SETC  '&C3.(&A3)'
         AGO   .LAST
.PLUSET  ANOP
&A2      SETA  L'&PR-K'&C1/2-1
&C3      SETC  '&C3+&A2.(&A3)'
         AGO   .LAST
.EDMK    AIF   ('&ED'(1,1) EQ '-').NEG
&C2      SETC  '$'
         AGO   .C2SET
.NEG     ANOP
&C2      SETC  '-'
.C2SET   ANOP
&A1      SETA  1
&B2      SETB  1
         AGO   .ANOP1
.EDMKEND ANOP
&A1      SETA  -1
.EDMKNOP ANOP
&A1      SETA  &A1+2
         AIF   (K'&C1 LT &A1).SETA
         AIF   ('&C1'(&A1,2) EQ '21').SETAA
         AIF   ('&C1'(&A1,2) NE '4B').EDMKNOP
&A1      SETA  (&A1+1)/2
         AGO   .LA
.SETA    ANOP
&A1      SETA  (&A1+1)/2-1
         AGO   .LA
.SETAA   ANOP
&A1      SETA  (&A1+1)/2+1
.LA      ANOP
         AIF   (&B1).MINUS
&A1      SETA  &A1+&A2
         AGO   .MVC
.MINUS   ANOP
&A1      SETA  &A1-&A2
.MVC     ANOP
&NAME    MVC   &C3,=X'40&C1'
         LA    1,&PR+&A1
         EDMK  &C3,&NUM
         AIF   ('&C2' EQ '$').DOLLAR
         BNM   EDIT&SYSNDX
         BCTR  1,0
         MVI   0(1),C'-'
&C3      SETC  '&SYSNDX'
EDIT&C3  EQU   *
         MEXIT
.DOLLAR  BCTR  1,0
         MVI   0(1),C'$'
         MEXIT
.MNOTE1  MNOTE 8,'---> THREE OPERANDS MUST BE SPECIFIED'
         MEXIT
.MNOTE2  MNOTE 8,'---> INVALID EDIT PATTERN'
         MEND
         MACRO
&NFS     HEX   &TO,&FROM,&L,&LEN=,&HEXTAB=,&BYTE=C' ',&DIGITS=
         GBLC  &HEXTAB#
         LCLA  &LT                      UNPK "TO" LENGTH
         LCLA  &LF                      UNPK "FROM" LENGTH
         LCLA  &LTR                     TR "TO" LENGTH
         LCLA  &LL                      &LEN ONE WAY OR ANOTHER
         LCLC  &F1,&F2,&T1,&T2,&LX
&F1      SETC  '&FROM(1)'               FOR SHORTER STRING LATER
&F2      SETC  '&FROM(2)'               FOR SHORTER STRING LATER
&T1      SETC  '&TO(1)'                 FOR SHORTER STRING LATER
&T2      SETC  '&TO(2)'                 FOR SHORTER STRING LATER
&LX      SETC  '&L&LEN'                 GET LENGTH USING EITHER METHOD
         AIF   ('&LX' EQ '').DEFLEN     LENGTH WILL DEFAULT TO 4
&LL      SETA  &LX                      GET IT
         AGO   .OKLEN
.DEFLEN  ANOP
&LL      SETA  4                        SET THE DEFAULT LENGTH
.OKLEN   AIF   ('&HEXTAB' EQ '').OKHEX1
&HEXTAB# SETC  '&HEXTAB'
.OKHEX1  AIF   ('&HEXTAB#' NE '').OKHEX2
&HEXTAB# SETC  'HEXTAB'
.OKHEX2  ANOP
&LT      SETA  &LL*2
         AIF   ('&DIGITS' EQ '').OKDIGIT
&LT      SETA  &DIGITS
.OKDIGIT AIF   (N'&TO NE 2).TO1
         AIF   (N'&FROM NE 2).T2F1
&NFS     UNPK  &T1.(&LT+1,&T2),&F1.(&LL+1,&F2)
         TR    &T1.(&LT,&T2),&HEXTAB#
         MVI   &T1+&LT.(&T2),&BYTE
         AGO   .DONE
.T2F1    AIF   (N'&FROM NE 1).ERRF
&NFS     UNPK  &T1.(&LT+1,&T2),&FROM.(&LL+1)
         TR    &T1.(&LT,&T2),&HEXTAB#
         MVI   &T1+&LT.(&T2),&BYTE
         AGO   .DONE
.TO1     AIF   (N'&TO NE 1).ERRT
         AIF   (N'&FROM NE 2).T1F1
&NFS     UNPK  &TO.(&LT+1),&F1.(&LL+1,&F2)
         TR    &TO.(&LT),&HEXTAB#
         MVI   &TO+&LT,&BYTE
         AGO   .DONE
.T1F1    AIF   (N'&FROM NE 1).ERRF
&NFS     UNPK  &TO.(&LT+1),&FROM.(&LL+1)
         TR    &TO.(&LT),&HEXTAB#
         MVI   &TO+&LT,&BYTE
         AGO   .DONE
.ERRF    MNOTE 8,'---> ERROR IN "FROM" PARAMETER, MACRO TERMINATED'
         MEXIT
.ERRT    MNOTE 8,'---> ERROR IN "TO" PARAMETER, MACRO TERMINATED'
         MEXIT
.DONE    ANOP
         MEND
         MACRO
         MESG  &N,&F,&T
&L       SETA  K'&SYSLIST(3)-2
         AIF   (&SYSLIST(2) EQ 0).NOFILL
&L       SETA  &L+&SYSLIST(2)
MESG&N   DC    YL1(&L),YL1(&F),C&T,CL&F' '
         MEXIT
.NOFILL  ANOP
MESG&N   DC    YL1(&L),YL1(&F),C&T
         MEND
         MACRO
         RCPDDN &DDN
         GBLC  &DYNP
         SPACE 1
***********************************************************************
**   BUILD THE DDNAME TEXT UNIT                                      **
***********************************************************************
         AIF   ('&DDN'(K'&DDN,1) EQ '/').BTU
         AIF   ('&DDN'(1,1) EQ '''').Q
         RCPSR2
         AIF   ('&DDN'(1,1) EQ '(').R
         L     R14,&DDN                LOAD ADDRESS OF DDNAME
         LH    R2,&DDN+4               LOAD LENGTH OF DDNAME
         AGO   .STH
.R       L     R14,0&DDN               LOAD ADDRESS OF DDNAME
         LH    R2,4&DDN                LOAD LENGTH OF DDNAME
.STH     STH   R2,S99TULNG             STORE DDNAME LENGTH
         BCTR  R2,0                    DECREMENT FOR EXECUTE
         EX    R2,&DYNP.MVC            MOVE DDNAME
         MVI   S99TUKEY+1,DALDDNAM     MOVE IN DDNAME KEY
         MVI   S99TUNUM+1,1            SET NUMBER FIELD
         RCPDINC 14
         MEXIT
.Q       RCPBTU DALDDNAM,1,&DDN
         MEXIT
.BTU     RCPTUBFR DALDDNAM,14,&DDN
         MEND
         MACRO
         RCPDINC &L1
         GBLA  &DTUO,&DTUPO
         GBLC  &DYNP
         AIF   ('&L1' EQ '').T2