LICF     TITLE 'LISTICAT - LIST AN ICF CATALOG.'                   -EU-
         PRINT OFF                                                 -EU-
         COPY  LISTICMC                                            -EU-
         PRINT ON                                                  -EU-
         SPACE 2                                                   -EU-
LISTICAT START 0                                                   -EU-
         SPACE 2                                                   -EU-
         COPY  LISTICDC                                            -EU-
         SPACE 2                                                   -EU-
&NAME    SETC  'LISTICAT'
&VERSION SETC  '1.2.2'
         EJECT ,                                                   -EU-
         $REGS
         EJECT ,                                                   -EU-
*        LIST AN ICF CATALOG.                                      -EU-
         SPACE 1                                                   -EU-
         $PROLOG R10,R11,R12                                       -EU-
         L     R4,=V(DATASECT)     COMMON DATA AREA
         USING DATASECT,R4
         L     R1,0(0,R1)          GET PARM POINTER
         LH    R3,0(0,R1)          GET PARM SIZE
         LTR   R3,R3               ANY PARM GIVEN?
         BZ    NOPARM              NO, ASSUME LIST
         CLC   2(4,R1),=C'DUMP'    HEX LISTING WANTED
         BNE   NOPARM              NO, ASSUME LIST
         B     HEXPRINT            DO A HEX LISTING
NOPARM   DS    0H
        $MESSAGE 1                                                 @122
         XPROPEN PWA,                                                  X
               PAGELEN=PAGELEN,                                        X
               DDNAME=SYSPRINT     OPEN LISTING FILE.
         LTR   R15,R15             DID SYSPRINT OPEN?
         BNZ   EODICAT             IF NOT, NO REPORT.
         BAS   R9,ALLVVDS          ALLOCATE ALL VVDS'S
         BAS   R9,OPICAT           OPEN REQUESTED CATALOG (SYSUT1) -EU-
         BAS   R9,GENRPL           GENERATE RPL FOR BCS.           @120
         EJECT ,                                                   -EU-
*        READ BCS RECORDS AND SCAN FOR CELL TYPES.                 -EU-
         SPACE 1                                                   -EU-
GETNEXT  L     R1,RPLICAT          PICK UP RPL ADDRESS.
         GET   RPL=(1)             READ A BCS RECORD.
         AP    BCSGETS,ONE         KEEP TRACK OF GETS ISSUED.
         LTR   R15,R15             RECORD READ OK?
         BZ    GETOK               GO PROCESS IT.
         ABEND 15,DUMP             TOO BAD!
GETOK    L     R3,BUFPTR           ADDR OF CATALOG RECORD
         L     R1,RPLICAT          ADDR OF BCS RPL.
         L     R1,48(0,R1)         LENGTH OF RECORD READ
         AR    R1,R3               POINT TO END OF CATALOG RECORD
         ST    R1,ENDBCS           SAVE END OF RECORD.
         LA    R3,2(,R3)           SKIP OVER PREFIX
NEXTCELL CLI   2(R3),C'A'          A = NONVSAM
         BE    NONVSAM
         CLI   2(R3),C'C'          C = CLUSTER
         BE    CLUSTER
         CLI   2(R3),C'D'          D = DATA
         BE    DATA
         CLI   2(R3),C'I'          I = INDEX
         BE    INDEX
         CLI   2(R3),C'B'          B = GDG BASE
         BE    GDGBASE
         CLI   2(R3),C'H'          H = GDG ENTRY
         BE    GDGENT
         CLI   2(R3),C'G'          G = ALTERNATE INDEX
         BE    AIX
         CLI   2(R3),C'R'          R = PATH
         BE    PATH
ENDCELL  XC    BLKSIZE,BLKSIZE     RESET BLKSIZE
         XC    LRECL,LRECL         RESET LRECL
         XC    TRACKS,TRACKS       RESET TRACKS.
         XR    R1,R1               CLEAR REGISTER.
         ICM   R1,3,0(R3)          PICK UP CELL LENGTH
         AR    R3,R1               POINT TO NEXT CELL
         C     R3,ENDBCS           ANY MORE CELLS IN THIS RECORD?
         BL    NEXTCELL            YES, KEEP GOING
         B     GETNEXT             READ ANOTHER RECORD.
EODICAT  EQU   *                   LAST BCS RECORD READ.
         CLOSE ACBICAT
         CLI   MCDSOPEN,255        DID WE OPEN THE MCDS?           @122
         BNE   EODICAT1            NO.                             @122
         CLOSE ACBMCDS             IF OPEN, CLOSE IT.              @122
EODICAT1 BAS   R9,COUNTS           PRINT THE STATS.                @122
         XPRCLOSE  PWA             CLOSE THE PRINT FILE.
        $MESSAGE 0                                                 @122
         $EPILOG ,                 AND GO HOME.
         EJECT ,                                                   -EU-
*- - - - LIST A NONVSAM RECORD.                                    -EU-
         SPACE 1                                                   -EU-
         USING NVNC,R3
NONVSAM  AP    CNTNVSAM,ONE        COUNT OFF A NONVSAM.
         CLI   BASESW,255          WAS A GDGBASE JUST BEFORE THIS.
         BNE   NONVSAM1            NO.
         AP    CNTNOENT,ONE        COUNT A GDGBASE WITH NO ENTRIES.
         MVI   BASESW,0            SWITCH OFF.
NONVSAM1 MVC   L1DSNAME,NVNAME     SETUP DSNAME
         MVC   L1TYPE,=C'NONVSAM'  SAY WHAT TYPE IT IS.
         BAS   R9,SETCREDT         FORMAT CREATION DATE.
         ICM   R0,1,=XL1'04'       VOLUME CELL TO BE FOUND.
         BAS   R9,FINDBCS          SO GO LOOK FOR IT.
         DROP  R3
         USING VOLCELL,R3
         MVC   L1VOLUME,VOLSERN    SETUP VOLUME SERIAL NUMBER
         LA    R5,VOLDEVTP         DEVICE TYPE                     -EU-
        $DVTYUN (R5),L1UNIT        GET UNIT NAME                   -EU-
         LTR   R15,R15             OK?                             -EU-
         BZ    NONVSAM3            YES                             -EU-
         MVC   L1UNIT(4),=C'????'  NO, CALL IT ???? (NOT FOUND)    -EU-
         B     NONVSAM5                                            -EU-
NONVSAM3 XR    R5,R5                                               -EU-
         TM    VOLDEVTP+2,X'20'    IS IT A DASD DEVICE?            -EU-
         BZ    NONVSAM4            NO                              -EU-
         L     R1,CVTPTR           GET CVT ADDRESS                 -EU-
         USING CVT,R1                                              -EU-
         L     R1,CVTZDTAB         DEV. CONSTANT TABLE ADDRESS     -EU-
         DROP  R1                                                  -EU-
         XR    R14,R14                                             -EU-
         LR    R15,R14                                             -EU-
         IC    R14,VOLDEVTP+3      GET DEVICE TYPE                 -EU-
         IC    R15,0(R14,R1)       GET DISPLACEMENT OF TABLE       -EU-
         LA    R15,0(R15,R1)       COMPUTE ADDRESS OF TABLE        -EU-
         CLR   R15,R1                                              -EU-
         BE    NONVSAM4            DEVICE NOT IN 'IECZDTAB' TABLE  -EU-
         ICM   R5,B'0011',2(R15)   NUMBER OF TRACKS PER CYLINDER   -EU-
NONVSAM4 ST    R5,TRKCYL           SAVE FOR LATER CALCULATION      -EU-
         TM    VOLDEVTP+2,X'20'    IS IT A DASD DEVICE?            -EU-
         BZ    NONVSAM5            IF NOT, NO VTOC TO SEARCH.
         BAS   R9,VTOC             GET DSCB FIELDS
NONVSAM5 CLC   L1VOLUME,=C'MIGRAT' IS IT MIGRATED BY HSM
         BNE   NONVSAM6            IF NOT, SKIP MCDS CHECK.
         BAS   R9,CHKHSM           SETUP MCDS FIELDS.
NONVSAM6 L     R1,LRECL            PICK UP LRECL VALUE.
         CVD   R1,WORK             CONVERT LRECL TO PACKED
         EDIT  L1LRECL,DWK3,ZZZZZ  FORMAT IT NICELY
         L     R1,BLKSIZE          PICK UP BLOCK SIZE.
         CVD   R1,WORK             CONVERT BLKSIZE TO PACKED
         EDIT  L1BLKSIZ,DWK3,ZZZZZ FORMAT IT NICELY
         L     R1,TRACKS           PICK UP ALLOCATED TRACKS
         CVD   R1,WORK             CONVERT TRACKS TO PACKED
         EDIT  L1TRACKS,DWK4,ZZZZZZZ    FORMAT IT NICELY.
         LM    R0,R1,PLINE1        PARMS TO PRINT LINE RPTLINE1
         BAS   R9,PRINT            PRINT LINE DESCRIBING THIS DATASET.
         B     ENDCELL             PROCESS NEXT BCS CELL.
         DROP  R3
         EJECT ,                                                   -EU-
*- - - - LIST A CLUSTER RECORD.                                    -EU-
         SPACE 1                                                   -EU-
         USING VCNC,R3
CLUSTER  AP    CNTCLUST,ONE        COUNT A CLUSTER.
         CLI   BASESW,255          WAS A GDGBASE JUST BEFORE THIS.
         BNE   CLUSTER1            NO.
         AP    CNTNOENT,ONE        COUNT A GDGBASE WITH NO ENTRIES.
         MVI   BASESW,0            SWITCH OFF.
CLUSTER1 MVC   L1DSNAME,CLNAME     SETUP CLUSTER NAME.
         MVC   L1TYPE,=C'CLUSTER'  CALL IT A CLUSTER.
         CLI   FIRST,0             FIRST CLUSTER CELL?
         BNE   NOTCL00             NO
         MVI   FIRST,255           THAT WAS THE ONE.
         ST    R3,SAVECL           FIRST CLUSTER HAS BCS NAME.
GETBCSD  XR    R1,R1               CLEAR A FEW BYTES.
         ICM   R1,3,0(R3)          PICK UP CELL LENGTH
         AR    R3,R1               POINT TO NEXT CELL
         CLI   2(R3),C'D'          IS IT A DATA CELL?
         BNE   GETBCSD             KEEP ON LOOKING.
         DROP  R3
**-EU-   USING DINC,R3
**-EU-   XR    R1,R1                                               @121
**-EU-   IC    R1,DIDKEYLN         GET LENGTH OF CATALOG NAME.     @121
**-EU-   B     *+10                                                @121
**-EU-   MVC   CATNAME(0),DIDKEY   SETUP CATNAME IN HEADING.       @121
**-EU-   EX    R1,*-6                                              @121
         BAS   R9,SETHEAD          DEFINE REPORT HEADING.
         L     R3,SAVECL           RESTORE CELL ADDR TO CLUSTER.
NOTCL00  BAS   R9,SETCREDT         FORMAT CREATION DATE.
         LM    R0,R1,PLINE1        PARMS TO PRINT LINE RPTLINE1
         BAS   R9,PRINT            PRINT LINE.
         B     ENDCELL             PROCESS NEXT BCS CELL.
**-EU-   DROP  R3
         USING DINC,R3
DATA     MVC   L1TYPE,=CL7'DATA'   DATA CELL (PARDON THE EXPRESSION)
         AP    CNTDATA,ONE         COUNT IT.
         B     SKIPDATA            GOTO COMMON FORMATTING LOGIC.
INDEX    MVC   L1TYPE,=CL7'INDEX'  CALL IT AN INDEX
         AP    CNTINDEX,ONE        AND COUNT IT.
SKIPDATA XR    R1,R1               CLEAR A REGISTER.
         IC    R1,DIDKEYLN         LENGTH OF INDEX/DATA NAME
         EX    R1,DIDMOVE          MOVE COMPONENT NAME FOR PRINT
         CLI   BASESW,255          WAS A GDGBASE JUST BEFORE THIS.
         BNE   CLUSTER2            NO.
         AP    CNTNOENT,ONE        COUNT A GDGBASE WITH NO ENTRIES.
         MVI   BASESW,0            SWITCH OFF.
CLUSTER2 BAS   R9,SETCREDT         FORMAT CREATION DATE.
         ICM   R0,1,=XL1'04'       VOLUME CELL TO BE FOUND.
         BAS   R9,FINDBCS          SO GO LOOK FOR IT.
         DROP  R3
         USING VOLCELL,R3
         MVC   L1VOLUME,VOLSERN    SETUP VOLUME SERIAL NUMBER
         LA    R5,VOLDEVTP         DEVICE TYPE                     -EU-
        $DVTYUN (R5),L1UNIT        GET UNIT NAME                   -EU-
         LTR   R15,R15             OK?                             -EU-
         BZ    CLUSTER3            YES                             -EU-
         MVC   L1UNIT(4),=C'????'  NO, CALL IT ???? (NOT FOUND)    -EU-
         B     CLUSTER5                                            -EU-
CLUSTER3 XR    R5,R5                                               -EU-
         TM    VOLDEVTP+2,X'20'    IS IT A DASD DEVICE?            -EU-
         BZ    CLUSTER4            NO                              -EU-
         L     R1,CVTPTR           GET CVT ADDRESS                 -EU-
         USING CVT,R1                                              -EU-
         L     R1,CVTZDTAB         DEV. CONSTANT TABLE ADDRESS     -EU-
         DROP  R1                                                  -EU-
         XR    R14,R14                                             -EU-
         LR    R15,R14                                             -EU-
         IC    R14,VOLDEVTP+3      GET DEVICE TYPE                 -EU-
         IC    R15,0(R14,R1)       GET DISPLACEMENT OF TABLE       -EU-
         LA    R15,0(R15,R1)       COMPUTE ADDRESS OF TABLE        -EU-
         CLR   R15,R1                                              -EU-
         BE    CLUSTER4            DEVICE NOT IN 'IECZDTAB' TABLE  -EU-
         ICM   R5,B'0011',2(R15)   NUMBER OF TRACKS PER CYLINDER   -EU-
CLUSTER4 ST    R5,TRKCYL           SAVE FOR LATER CALCULATION      -EU-
CLUSTER5 MVC   RBASAVE,VOLVVRBA    SAVE RBA OF CI CONTAINING VVR CELL.
         DROP  R3
         L     R5,VVDSTAD          GET VVDSTAB START ADDR
         USING VVDSTAB,R5
CLUSTER8 CLI   VVDSVOL,255         LAST ENTRY?
         BE    CLUSTER7            YES, OH WELL.
         CLC   VVDSVOL,L1VOLUME    IS THIS THE VVDS?
         BNE   CLUSTER6            NO, TRY AGAIN
         ICM   R1,15,RBASAVE       GET VVR RBA
         STCM  R1,15,VVDSARG       INSERT INTO ARG FIELD FOR RPL
         ICM   R8,15,VVDSRPL       PICK UP RPL ADDR
         POINT RPL=(R8)            POSITION TO DESIRED RECORD
         GET   RPL=(R8)            READ IN RECORD
         AP    VVDSGETS,ONE        KEEP A COUNT.
         LTR   R15,R15             RECORD READ OK?
         L     R6,VVDSBUF          ADDR OF CATALOG RECORD
         L     R1,VVDSRPL          GET ADDR OF RPL
         L     R1,48(0,R1)         LENGTH OF RECORD READ
         AR    R1,R6               POINT TO END OF CATALOG RECORD
         ST    R1,ENDVVD           SAVE END OF RECORD
         LA    R6,2(,R6)           SKIP OVER PREFIX
         BAS   R9,VVDS             PROCESS VVDS FIELDS.
         C     R15,=F'8'           DID WE GET THEM?                @122
         BNE   CLUSTER6            YES.                            @122
        $MESSAGE 4,DATA=L1DSNAME                                   @122
         B     CLUSTER9            PRINT WHAT WE GOT.              @122
CLUSTER6 LA    R5,VVDSTLEN(0,R5)   NEXT ENTRY
         B     CLUSTER8            TRY NEXT VVDS
         DROP  R5
CLUSTER7 L     R1,LRECL            PICK UP LOGICAL RECORD LENGTH.
         CVD   R1,WORK             CONVERT LRECL TO PACKED
         EDIT  L1LRECL,DWK3,ZZZZZ  FORMAT IT NICELY
         L     R1,BLKSIZE          GET PHYSICAL BLOCK LENGTH.
         CVD   R1,WORK             CONVERT BLKSIZE TO PACKED
         EDIT  L1BLKSIZ,DWK3,ZZZZZ FORMAT IT NICELY.
         L     R1,TRACKS           PICK UP ALLOCATED TRACKS.
         CVD   R1,WORK             CONVERT TRACKS TO PACKED
         EDIT  L1TRACKS,DWK4,ZZZZZZZ    FORMAT IT NICELY.
CLUSTER9 LM    R0,R1,PLINE1        PARMS TO PRINT LINE RPTLINE1    @122
         BAS   R9,PRINT            PRINT LINE.
         B     ENDCELL             PROCESS NEXT BCS CELL.
         USING DINC,R3
DIDMOVE  MVC   L1DSNAME(0),DIDKEY  -> (EXECUTED) <-
         DROP  R3
         EJECT ,                                                   -EU-
*- - - - LIST AN ALTERNATE INDEX RECORD.                           -EU-
         SPACE 1                                                   -EU-
         USING ANC,R3
AIX      AP    CNTAIX,ONE          COUNT AN AIX ENTRY.
         CLI   BASESW,255          WAS A GDGBASE JUST BEFORE THIS.
         BNE   AIX0                NO.
         AP    CNTNOENT,ONE        COUNT A GDGBASE WITH NO ENTRIES.
         MVI   BASESW,0            SWITCH OFF.
AIX0     MVC   L1TYPE,=CL7'AIX'    CALL IT AN AIX.
         XR    R1,R1               CLEAR A REGISTER.
         ICM   R1,1,AIXKEYLN       PICK UP AIX NAME LENGTH
         B     AIX1                BRANCH AROUND EXECUTED INSTRUCTION.
         MVC   L1DSNAME(0),AIXKEY  EXECUTED
AIX1     EX    R1,*-6              MOVE AIX NAME TO PRINT LINE.
         HEX   RPTLINE1+75,                                            X
               ANC,7,HEXTAB=TRHEX  HEX TRANSLATE AIX CELL CONTENTS.
         LM    R0,R1,PLINE1        PARMS TO PRINT LINE RPTLINE1
         BAS   R9,PRINT            PRINT LINE.
         B     ENDCELL             PROCESS NEXT CELL.
         SPACE 2                                                   -EU-
*- - - - LIST A PATH RECORD.                                       -EU-
         SPACE 1                                                   -EU-
         USING PNC,R3
PATH     AP    CNTPATH,ONE         COUNT A PATH CELL.
         CLI   BASESW,255          WAS A GDGBASE JUST BEFORE THIS.
         BNE   PATH0               NO.
         AP    CNTNOENT,ONE        COUNT A GDGBASE WITH NO ENTRIES.
         MVI   BASESW,0            SWITCH OFF.
PATH0    MVC   L1TYPE,=CL7'PATH'   CALL IT A PATH.
         XR    R1,R1               CLEAR A REGISTER.
         ICM   R1,1,PATHKYLN       PICK UP PATH NAME LENGTH
         B     PATH1               BRANCH AROUND EXECUTED INSTRUCTION.
         MVC   L1DSNAME(0),PATHNAME  EXECUTED
PATH1    EX    R1,*-6              MOVE PATH NAME TO PRINT LINE.
         LM    R0,R1,PLINE1        PARMS TO PRINT LINE RPTLINE1
         BAS   R9,PRINT            PRINT LINE.
         B     ENDCELL             PROCESS NEXT CELL.
         EJECT ,                                                   -EU-
*- - - - LIST A GDG BASE OR GDG ENTRY RECORD.                      -EU-
         SPACE 1                                                   -EU-
         USING GDGNC,R3
GDGBASE  AP    CNTGDGB,ONE         COUNT A BASE.
         CLI   BASESW,255          WAS A GDGBASE JUST BEFORE THIS.
         BNE   GDGBASE1            NO.
         AP    CNTNOENT,ONE        COUNT A GDGBASE WITH NO ENTRIES.
GDGBASE1 MVI   BASESW,255          IDENTIFY GDGBASE.
         MVC   L1TYPE,=CL7'GDGBASE'  IDENTIFY RECORD TYPE
         MVC   L1DSNAME,GDGNAME    SETUP GDGNAME.
         MVC   GDGSAVE,GDGNAME     SAVE GDGNAME.
         BAS   R9,SETCREDT         FORMAT CREATION DATE.
         LM    R0,R1,PLINE1        PARMS TO PRINT LINE RPTLINE1
         BAS   R9,PRINT            PRINT LINE.
         B     ENDCELL             PROCESS NEXT CELL.
         DROP  R3
         USING GDSNC,R3
GDGENT   AP    CNTGDGE,ONE         COUNT IT.
         CLI   BASESW,255          PRECEEDED BY GDGBASE?
         BNE   GDGENT0             ???????
         MVI   BASESW,0            SWITCH OFF
GDGENT0  MVC   L1TYPE,=CL7'GDG ENT'  IDENTIFY RECORD TYPE
         MVC   GDGWORK,GDGSAVE     START WITH BASE NAME.
         LA    R1,GDGWORK          GET ADDRESS OF BASE NAME
         LA    R8,44               44 BYTES AT MOST
GDGENT1  CLI   0(R1),C' '          SCAN FOR A BLANK
         BE    GDGENT2             YES.
         LA    R1,1(0,R1)          TRY NEXT CHARACTER.
         BCT   R8,GDGENT1          KEEP LOOKING
GDGENT2  XR    R8,R8               CLEAR A REGISTER.
         ICM   R8,3,GDSGENO        PICK UP GENERATION NUMBER.
         CVD   R8,GWORD            PACK IT.
         UNPK  2(4,R1),GWK3        UNPACK GENERATION NUMBER.
         OI    5(R1),X'F0'         FIX SIGN
         XR    R8,R8               CLEAR A REGISTER.
         ICM   R8,1,GDSVERNO       PICK UP VERSION NUMBER.
         CVD   R8,GWORD            PACK IT.
         UNPK  7(2,R1),GWK2        UNPACK VERSION NUMBER.
         OI    8(R1),X'F0'         FIX SIGN
         MVC   0(2,R1),=C'.G'      SET G0000
         MVI   6(R1),C'V'          G0000V00
         MVC   L1DSNAME,GDGWORK    MOVE IN DEVELOPED NAME
         BAS   R9,SETCREDT         FORMAT CREATION DATE.
         ICM   R0,1,=XL1'04'       VOLUME CELL TO BE FOUND.
         BAS   R9,FINDBCS          SO GO LOOK FOR IT.
         DROP  R3
         USING VOLCELL,R3
         MVC   L1VOLUME,VOLSERN    SETUP VOLUME SERIAL NUMBER
         LA    R5,VOLDEVTP         DEVICE TYPE                     -EU-
        $DVTYUN (R5),L1UNIT        GET UNIT NAME                   -EU-
         LTR   R15,R15             OK?                             -EU-
         BZ    GDGENT5             YES                             -EU-
         MVC   L1UNIT(4),=C'????'  NO, CALL IT ???? (NOT FOUND)    -EU-
         B     GDGENT7                                             -EU-
GDGENT5  XR    R5,R5                                               -EU-
         TM    VOLDEVTP+2,X'20'    IS IT A DASD DEVICE?            -EU-
         BZ    GDGENT6             NO                              -EU-
         L     R1,CVTPTR           GET CVT ADDRESS                 -EU-
         USING CVT,R1                                              -EU-
         L     R1,CVTZDTAB         DEV. CONSTANT TABLE ADDRESS     -EU-
         DROP  R1                                                  -EU-
         XR    R14,R14                                             -EU-
         LR    R15,R14                                             -EU-
         IC    R14,VOLDEVTP+3      GET DEVICE TYPE                 -EU-
         IC    R15,0(R14,R1)       GET DISPLACEMENT OF TABLE       -EU-
         LA    R15,0(R15,R1)       COMPUTE ADDRESS OF TABLE        -EU-
         CLR   R15,R1                                              -EU-
         BE    GDGENT6             DEVICE NOT IN 'IECZDTAB' TABLE  -EU-
         ICM   R5,B'0011',2(R15)   NUMBER OF TRACKS PER CYLINDER   -EU-
GDGENT6  ST    R5,TRKCYL           SAVE FOR LATER CALCULATION      -EU-
         TM    VOLDEVTP+2,X'20'    IS IT A DASD DEVICE?            -EU-
         BZ    GDGENT7             IF NOT, NO VTOC TO SEARCH.
         BAS   R9,VTOC             GET DSCB FIELDS
GDGENT7  CLC   L1VOLUME,=C'MIGRAT'  IS IT MIGRATED BY HSM?
         BE    GDGENT8             IF SO, THAT'S IT.
         L     R1,LRECL            PICK UP LOGICAL RECORD LENGTH
         CVD   R1,WORK             CONVERT LRECL TO PACKED
         EDIT  L1LRECL,DWK3,ZZZZZ  FORMAT IT NICELY
         L     R1,BLKSIZE          PICK UP BLOCK SIZE.
         CVD   R1,WORK             CONVERT BLKSIZE TO PACKED
         EDIT  L1BLKSIZ,DWK3,ZZZZZ FORMAT WITH ZERO SUPPRESSION.
         L     R1,TRACKS           PICK UP ALLOCATED TRACKS.
         CVD   R1,WORK             CONVERT TRACKS TO PACKED
         EDIT  L1TRACKS,DWK4,ZZZZZZZ    MAKE IT PRINTABLE.
         DROP  R3
GDGENT8  LM    R0,R1,PLINE1        PARMS TO PRINT LINE RPTLINE1
         BAS   R9,PRINT            PRINT LINE.
         B     ENDCELL             PROCESS NEXT BCS CELL.
         EJECT ,                                                   -EU-
*        READ FORMAT1 DSCB AND SETUP DCB AND SPACE INFO.           -EU-
         SPACE 1                                                   -EU-
* THIS CODE USES OBTAIN TO READ IN THE FORMAT 1 DSCB AND A FORMAT 3
* DSCB IF ONE EXISTS. INFORMATION IS EXTRACTED AND PLACED INTO THE
* FIELDS : LRECL, BLKSIZE AND TRACKS.
         SPACE 1                                                   -EU-
VTOC     $IN ,
         XC    BLKSIZE,BLKSIZE     RESET BLKSIZE
         XC    LRECL,LRECL         RESET LRECL
         XC    TRACKS,TRACKS       RESET TRACKS.
         MVC   CAMVOL,L1VOLUME     USE VOLSER FROM BCS VOLCELL.
         CLC   CAMVOL,=C'MIGRAT'   IS IT MIGRATED?
         BE    VTOC99              IF SO, WHY BOTHER.
         MVC   CAMDSN,L1DSNAME     USE DSNAME FROM BCS.
         OBTAIN  SEARCH            READ FORMAT 1 DSCB BY DSNAME.
         ST    R15,OBTAINRC        SAVE OBTAIN RETURN CODE.
         LTR   R15,R15             WAS IT THERE?
         BZ    VTOC1               YES.
         AP    CNTNF,ONE           OTHERWISE COUNT AN ORPHAN.
         B     VTOC99              AND LEAVE IT BLANK.
VTOC1    XR    R1,R1               CLEAR REGISTER 1.
         ICM   R1,3,FORMAT1+42     PICK UP BLKSIZE
         ST    R1,BLKSIZE          AND SAVE FOR PRINT OUT.
         ICM   R1,3,FORMAT1+44     PICK UP LRECL
         ST    R1,LRECL            AND SAVE FOR PRINT OUT.
         MVC   SV1EXT1(30),FORMAT1+61  SAVE EXTENTS 1 TO 3
         CLC   FORMAT1+91,=5X'00'  IS THERE A FORMAT 3?
         BE    VTOC2A              NO, SKIP IT.
         MVC   CCHHR3,FORMAT1+91   POINTER TO FORMAT 3 DSCB.
         OBTAIN  F3CAMLST          READ FORMAT 3 BY DISK ADDRESS.
         LTR   R15,R15             DID WE GET IT?
         BNZ   VTOC2A              OH WELL
         MVC   SV3EXT4(40),FORMAT3+4  EXTENTS 4,5,6 AND 7.
         MVC   SV3EXT8(90),FORMAT3+45  EXTENTS 8 TO 16.
VTOC2A   XR    R15,R15             ZERO LOOP REGISTER
         XR    R7,R7               ZERO INDEX REGISTER
         XR    R8,R8               ZERO COUNT OF TRACKS ALLOCATED.
         IC    R15,FORMAT1+15      GET NUMBER OF EXTENTS
         LTR   R15,R15             ARE THERE ANY EXTENTS?
         BZ    VTOC5A              SKIP IT IF ZERO EXTENT
VTOC5B   EX    R0,EXTLIST(R7)      GET AN EXTENT ADDR IN R5.
         CLI   0(R5),X'00'         IS THIS AN ACTIVE EXTENT?
         BE    VTOC5C              IF NOT, SKIP IT.
         XR    R0,R0               CLEAR A REGISTER.
         ICM   R0,3,2(R5)          STARTING CC
         XR    R14,R14             CLEAR A REGISTER.
         L     R14,TRKCYL          TRACKS PER CYLINDER
         SRDA  R0,32               SETUP FOR MULTIPLY.
         MR    R0,R14              R1 = TRKS IN FULL CYLINDERS.
         ICM   R14,3,4(R5)         STARTING TT
         AR    R1,R14              STARTING RELATIVE TRACK.
         ST    R1,STARTTRK         SAVE IT.
         XR    R0,R0               CLEAR A REGISTER.
         ICM   R0,3,6(R5)          ENDING CC
         XR    R14,R14             CLEAR A REGISTER.
         L     R14,TRKCYL          TRACKS PER CYLINDER
         SRDA  R0,32               SETUP FOR MULTIPLY.
         MR    R0,R14              R1 = TRKS IN FULL CYLINDERS.
         ICM   R14,3,8(R5)         ENDING TT
         AR    R1,R14              STARTING RELATIVE TRACK.
         S     R1,STARTTRK         TRACKS IN THIS EXTENT IN R1
         LA    R1,1(,R1)           KEEP IT HONEST
         AR    R8,R1               COUNT IT
         LA    R7,4(,R7)           SKIP TO NEXT LA INSTRUCTION.
VTOC5C   BCT   R15,VTOC5B          LOOP THROUGH ALL EXTENTS.
VTOC5A   LA    R8,0(0,R8)          PURIFY A REGISTER.
         STCM  R8,15,TRACKS        TRACKS ALLOCATED
VTOC99   $OUT  ,                   RETURN
EXTLIST  LA    R5,SV1EXT1
         LA    R5,SV1EXT2
         LA    R5,SV1EXT3
         LA    R5,SV3EXT4
         LA    R5,SV3EXT5
         LA    R5,SV3EXT6
         LA    R5,SV3EXT7
         LA    R5,SV3EXT8
         LA    R5,SV3EXT9
         LA    R5,SV3EXT10
         LA    R5,SV3EXT11
         LA    R5,SV3EXT12
         LA    R5,SV3EXT13
         LA    R5,SV3EXT14
         LA    R5,SV3EXT15
         LA    R5,SV3EXT16
         EJECT ,                                                   -EU-
*        ALLOCATE ALL ONLINE VVDS'S.                               -EU-
         SPACE 1                                                   -EU-
* PASS THROUGH THE UCB LOOKUP TABLE. USING UCBVOLI DEVELOP A DSNAME OF
* SYS1.VVDS.VVOLSER. TRY TO DYNAMICALLY ALLOCATE IT. IF SUCCESSFUL
* GENERATE AN ACB AND AN RPL AND SAVE THEIR ADDRESSES. FINALLY OPEN
* THE VVDS.
         SPACE 1                                                   -EU-
ALLVVDS  $IN ,
         LA    R0,VVDSGETL         LENGTH OF TABLE.
         GETMAIN R,LV=(0)
         ST    R1,VVDSTAD          SAVE TABLE START ADDRESS
         LR    R5,R1               R5 AS BASE REG FOR VVDS TABLE.
         USING VVDSTAB,R5
         L     R3,CVTPTR          GET CVT ADDRESS                  @120
         USING CVTMAP,R3          ADDRESS TO CVT                   @120
         XC    UCBWORK,UCBWORK    CLEAR WORK AREA                  @120
         LA    R1,UCBWORK         GET ADDRESS OF WORK AREA         @120
         ST    R1,PARMWA          STORE ADDR IN PARMLIST           @120
         LA    R1,DEVCLASS        ADDR OF DEVICE CLASS             @120
         ST    R1,PARMDEVT        STORE ADDR IN PARMLIST           @120
         MVI   DEVCLASS,UCB3DACC  SEARCH FOR DASD UCBS ONLY        @120
         LA    R1,ADDRUCB         ADDR OF RETURNED UCB             @120
         ST    R1,PARMUCB         STORE UCB IN PARMLIST            @120
         OI    PARMUCB,X'80'      END OF PARMLIST                  @120
         L     R1,CVTUCBSC        GET SCAN SERVICE ROUTINE         @120
         DROP  R3                                                  @120
         ST    R1,SCANSAVE        HOLD FOR LATER                   @120
UCBLOOP  LA    R1,PARMLIST        PUT ADDR INTO REG 1              @120
         L     R15,SCANSAVE       GET SCAN SERVICE RTN             @120
         BASR  R14,R15            GO TO SCAN SERVICE INTERFACE     @120
         LTR   R15,R15            WAS A UCB RETURNED?              @120
         BNZ   LASTUCB            NO.                              @120
         USING UCBOB,R2           ADDR TO UCB DSECT                @120
         L     R2,ADDRUCB         GET RETURNED UCB ADDR            @120
         TM    UCBSTAT,UCBONLI     IS IT ONLINE?                   @120
         BZ    UCBLOOP             NO, KEEP GOING                  @120
         B     ALLVVDS1            PROCESS DASD VOLUME.            @120
LASTUCB  B     ALLVVDS9                                            @120
ALLVVDS1 MVC   VVDSNAME,UCBVOLI    SET UP VOLSER IN DSNAME
         MVC   VVDDNAME,UCBVOLI    SET UP VOLSER IN DDNAME
         MVC   VVDSVOL,UCBVOLI     SAVE VOLSER IN TABLE.
         ALLOC DSN=LOCDSN,DISP=SHR,DDN=LOCDDN,ERROR=UCBLOOP
         GENCB BLK=ACB,AM=VSAM,BUFSP=32768,DDNAME=(*,VVDDN),           X
               MACRF=(ADR,SEQ)
         LTR   R15,R15             ACB GENERATED?
         BNZ   UCBLOOP             IF NOT, SKIP THIS VOLUME.
         STCM  R1,15,VVDSACB       STORE ACB ADDRESS
         GENCB BLK=RPL,AM=VSAM,ACB=(*,VVDSACB),AREA=(S,VVDSBUF),       X
               OPTCD=(ADR,SEQ,LOC),ARG=(S,VVDSARG)
         LTR   R15,R15             RPL GENERATED?
         BNZ   UCBLOOP             IF NOT, SKIP THIS VOLUME.
         STCM  R1,15,VVDSRPL       STORE RPL ADDRESS
        SETAUTH ,                                                  -EU-
**-EU-   LA    R0,1                AUTHORIZATION ON.
**-EU-   SVC   232                 **** INSTALLATION DEPENDANT. ****
         ICM   R8,15,VVDSACB       GET ACB ADDRESS