QSPH     TITLE '--- QUEUE/SP -- HELP -- HELP PANELS DATA ---'
         PRINT OFF
         MACRO
&NAME    $     &TEXT,&LEN
         AIF   ('&LEN' EQ '').L80
&NAME    DC    CL&LEN&TEXT
         MEXIT
.L80     ANOP
&NAME    DC    CL80&TEXT
         MEND
         MACRO
&NAME    $PFLOC &LOC,&SHIFT
         LCLA  &L,&N
&L       SETA  &LOC
&N       SETA  1
         AIF   ('&NAME' EQ '').A
&NAME    DS    0H
.A       DC    AL2(&L)
         AIF   (&N EQ 12).B
&N       SETA  &N+1
&L       SETA  &L+80
         AGO   .A
.B       ANOP
&L       SETA  &LOC+&SHIFT
&N       SETA  1
.C       DC    AL2(&L)
         AIF   (&N EQ 12).D
&N       SETA  &N+1
&L       SETA  &L+80
         AGO   .C
.D       MEND
         PRINT ON
         SPACE 1
*---------------------------------------------------------------------*
*                                                                     *
* HELP : HELP COMMAND DATA (DISPLAY HELP PANELS INFORMATION)          *
*                                                                     *
*---------------------------------------------------------------------*
         SPACE 1
QSPHELP  START 0
         SPACE 1
*        VECTOR OF POINTERS TO HELP PANELS DATA.
*        ---------------------------------------
         SPACE 1
         DC    CL2'Q ',AL4(HELPQ)       QUEUE/SPOOL
         DC    CL2'QN',AL4(HELPQN)      QUEUE/SPOOL NOTES
         DC    CL2'J ',AL4(HELPJ)       JOBS DATA-SETS
         DC    CL2'JN',AL4(HELPJN)      JOBS DATA-SETS NOTES
         DC    CL2'E ',AL4(HELPE)       EXTENDED SERVICES
         DC    CL2'O ',AL4(HELPO)       OPERATOR SERVICES
         DC    CL2'D ',AL4(HELPD)       PRIVILEGED
         DC    CL2'PN',AL4(HELPPN)      SET PF-KEYS SERVICES
         DC    CL2'P ',AL4(HELPP)       PF-KEYS DISPLAY
         DC    H'0'                     END OF VECTOR
         SPACE 1
*        PF-KEYS PANEL DISPLACEMENTS TO STORE VALUES.
         SPACE 1
         $PFLOC 94,36         DISPLACEMENTS FROM 'HELPSP'
         SPACE 1
         PRINT NOGEN
         EJECT
HELPQ    $     'QUEUE/SPOOL Subcommands (HELP Q) :',79
         DC    0H'0',AL2(HELPLQ)
HELPSQ   DC    CL4' '              INDENT THE FOLLOWING 4 SPACES
 $ 'STATUS <level> - Display all jobs beginning with <level>.'
 $ 'DA             - Display all jobs in execution.'
 $ 'DI     <class> - Display all jobs in input <class>.'
 $ 'DO     <class> - Display all jobs in output <class>.'
 $ 'DL     <class> - Display all jobs in local output <class>.'
 $ 'DR     <class> - Display all jobs in remote output <class>.'
 $ 'AI     <class> - Display jobs available for processing in <class>.'
 $ 'AO     <class> - Display jobs available for printing/punching in <c1
               lass>.'
 $ 'HI     <class> - Display held jobs in input <class>.'
 $ 'HO             - Display held output jobs.'
 $ 'DJ     <jobid> - Display job by job-name or job-number.'
 $ 'DT             - Display TSO users.'
 $ 'DS             - Display SYSTEM tasks.'
 $ 'QI             - Display summary of input queues.'
 $ 'QO             - Display summary of output queues.'
 $ ' ',76
 $ 'E, END, EXIT or STOP : Terminate processing.'
HELPLQ   EQU   *-HELPSQ
         EJECT
HELPQN   $     'QUEUE/SPOOL subcommands notes (HELP QN) :',79
         DC    0H'0',AL2(HELPLQN)
HELPSQN  DC    CL4' '              INDENT THE FOLLOWING 4 SPACES
 $ '<level>  is job-name prefix, default is LOGON ID.'
 $ '         A <level> of * indicates use the LOGON ID.'
 $ '<class>  is a valib job class, default is all classes.'
 $ '<jobid>  is job-name or job-number, no default is supplied.'
 $ '         A <jobid> of * indicates use previously entered <jobid>.'
 $ ' ',76
 $ 'NOTES : - When you see *MORE* in the upper right-hand corner of the1
                screen, it'
 $ '          means that more information is waiting. You may either hi1
               t ENTER to'
 $ '          view it, or enter a new subcommand to skip it.'
 $ '        - A help panel can be directly viewed using his specific HE1
               LP (or H)'
 $ '          subcommand.'
HELPLQN  EQU   *-HELPSQN
         EJECT
HELPJ    $     'Jobs DATA-SETS subcommands (HELP J) :',79
         DC    0H'0',AL2(HELPLJ)
HELPSJ   DC    CL4' '              INDENT THE FOLLOWING 4 SPACES
 $ 'JCL    <jobid>        - List JCL for a job.'
 $ 'JLOG   <jobid>        - List JOBLOG for a job (only on output queue1
               ).'
 $ 'JMSG   <jobid>        - List SYSTEM messages for a job.'
 $ 'DD     <jobid>        - List SYSIN and SYSOUT data-sets for a job.'
 $ 'LIST   <jobid> <dsid> - List a SYSIN or SYSOUT data-set.'
 $ 'FIND   <string>       - Find a character string in a data-set.'
 $ 'FALL   <string>       - Find all occurrences of <string>.'
 $ 'COLUMN <col>          - Reposition horizontally to column <col>.'
 $ '@      <#>            - Reposition to specific record number.'
 $ '+      <#>            - Reposition forward in data-set <#> records.1
                '
 $ '-      <#>            - Reposition backward in data-set <#> records1
               .'
 $ 'TOP                   - Reposition to top of data-set.'
 $ 'BOTTOM                - Reposition to bottom of data-set.'
 $ '*                     - Re-prompt with previous command.'
 $ ' ',76
HELPLJ   EQU   *-HELPSJ
         EJECT
HELPJN   $     'Jobs DATA-SETS subcommands notes (HELP JN) :',79
         DC    0H'0',AL2(HELPLJN)
HELPSJN  DC    CL4' '              INDENT THE FOLLOWING 4 SPACES
 $ '<jobid>  is job-name or job-number, no default is supplied.'
 $ '         A <jobid> of * indicates use previously entered <jobid>.'
 $ '<dsid>   is data-set ID number (it can be determined by using the D1
               D'
 $ '         subcommand).'
 $ '<string> is search string, delimited by any same CHAR at each end.'
 $ '<col>    default is column 1.'
 $ '<#>      default is 0.'
 $ ' ',76
 $ 'Following is a list of synonyms :'
 $ '    LIST or L      FIND or F      COLUMN or C    + or D'
 $ '    - or UP        TOP or T       BOTTOM or B'
HELPLJN  EQU   *-HELPSJN
         EJECT
HELPE    $     'EXTENDED SERVICES subcommands (HELP E) :',79
         DC    0H'0',AL2(HELPLE)
HELPSE   DC    CL4' '              INDENT THE FOLLOWING 4 SPACES
 $ 'SLOG  <job#> <seq>    - List the SYSTEM LOG data-set.'
 $ 'FTIME <time>          - Reposition SYSTEM LOG to given time.'
 $ 'SAVE  <dsname> <disp> - Create a copy of the current data-set.'
 $ 'TSO   <TSOcmd>        - Issue a TSO command or CLIST (alias : TSO, 1
               :).'
 $ 'TD    <opt>           - Display TSO commands non-zero R.C.'
 $ 'PRINT ON <cl> <dest>  - Start the HARDCOPY function (alias : PRINT,1
                P).'
 $ 'PRINT OFF             - Stop the HARDCOPY function (default).'
 $ ' ',76
 $ '<job#>   may be determined by STATUS SYSLOG.'
 $ '<seq>    defaults to 0 (the current SYSLOG data-set), use a value o1
               f 1, 2,'
 $ '         3, ... to obtain previous data-sets.'
 $ '<time>   is in the form HH.MM.SS.'
 $ '<dsname> will be expanded to USERID.<dsname>.OUTLIST.'
 $ '<disp>   is OLD/MOD/NEW/NORLSE (default is NEW and assume RLSE, NOR1
               LSE is new'
 $ '         with unused space not released).'
 $ '<TSOcmd> may be a command or a CLIST (implicit form only, and the w1
               ord EXEC or'
 $ '         EX may preceed it).'
 $ '<opt>    may be OFF, ON or FULL.'
 $ '<cl>     is the SYSOUT class for HARDCOPY (default is A).'
 $ '<dest>   is a JES2 destination for HARDCOPY (default is LOCAL).'
HELPLE   EQU   *-HELPSE
         EJECT
HELPO    $     'OPERATOR SERVICES subcommands (HELP O) :',79
         DC    0H'0',AL2(HELPLO)
HELPSO   DC    CL4' '              INDENT THE FOLLOWING 4 SPACES
 $ 'ID                - JES2 running initiators status display.'
 $ 'TG                - Track groups jobs usage. The panel left side is1
                a list'
 $ '                    of the top 20 jobs with most track groups (spoo1
               l space),'
 $ '                    and the right side shows all jobs distribution 1
               into 20'
 $ '                    categories of track groups allocation.'
 $ 'YA <sec> T        - Enable AUTOMATIC MODE (sec : continuous display1
                time'
 $ '                    interval expressed in seconds). Default for <se1
               c> is'
 $ '                    60 seconds. The acceptable lower and upper limi1
               ts values'
 $ '                    for <sec> are 2 sec and 300 sec (5 min) respect1
               ively.'
 $ '                    T is for TRACE use (id=1, just once).'
 $ 'ZA                - Disable AUTOMATIC MODE.'
 $ ' ',76
 $ 'NOTES : - The AUTOMATIC MODE CONTROL (continuous display) is active1
                only with'
 $ '          a QUEUE/SPOOL subcommand (it is suspended during executio1
               n of any'
 $ '          other subcommand type).'
 $ '        - The HARDCOPY function is inactive during AUTOMATIC MODE C1
               ONTROL,'
 $ '          unless this is suspended.'
HELPLO   EQU   *-HELPSO
         EJECT
HELPD    $     'PRIVILEGED subcommands - DEBUG use (HELP D) :',79
         DC    0H'0',AL2(HELPLD)
HELPSD   DC    CL4' '              INDENT THE FOLLOWING 4 SPACES
 $ 'XE <opt>          - Set dump extended format (opt=ON/OFF).'
 $ 'XB <MTTR>         - Display block from SYS1.HASPACE.'
 $ 'XP PASSWORD       - Allow PRIVILEGED authority.'
 $ '                    (You are prompted to supply the password)'
 $ 'XP RESET          - Reset PRIVILEGED authority.'
 $ 'XQ                - Display all JQEs queues.'
 $ 'XQ <jobid>        - Unrestricted display of JQEs for a job.'
 $ 'XO <jobid>        - Unrestricted display of JOEs for a job.'
 $ 'XJ <jobid>        - Display uninterpreted JQEs and JOEs for a job.'
 $ 'LP <jobid> <dsid> - List all PDDBs or dump specific <dsid> PDDBs fo1
               r a job.'
 $ 'XL <jobid> <dsid> - Unrestricted display of a data-set for a job.'
 $ 'XT                - Display some control blocks.'
 $ 'YT <id> <opt>     - Set TRACE id (default id=1, max=255) : active (1
               opt=ON)'
 $ '                    or inactive (opt=OFF, default). 1-127 : execute1
               d once.'
 $ 'YT S              - Stop (reset) all TRACE activities.'
 $ 'YT I              - TRACE status re-initialization.'
 $ ' ',76
 $ 'NOTE : The TRACE feature needs SYSSNAP pre-allocated.'
HELPLD   EQU   *-HELPSD
         EJECT
HELPPN   $     'QUEUE/SPOOL set PF-keys services (HELP PN) :',79
         DC    0H'0',AL2(HELPLPN)
HELPSPN  DC    CL4' '              INDENT THE FOLLOWING 4 SPACES
 $ 'PF or PFK : display all PF-keys current definitions.'
 $ 'PF or PFK nn ...sub-command... : redefine value of PF-key nn (1-24)1
               .'
 $ 'PZ : restore all original PF-keys definitions.'
 $ 'PS <A> <B> <M> : save in member M of the data-set named USERID.A.B 1
               all'
 $ '                 the current PF-keys definitions.'
 $ 'PL <A> <B> <M> : restore from member M of the data-set named USERID1
               .A.B'
 $ '                 all PF-keys definitions.'
 $ ' '
 $ 'where <A> is the first part of the data-set name (default is SPF),'
 $ '      <B> is the last part of the data-set name (default is PROF),'
 $ '      <M> is the member name (default is QSPPROF).'
 $ ' ',76
 $ 'NOTES : - <A>, <B> and <M> defaults must be indicated by a minus si1
               gn (-)'
 $ '          if followed by a parameter, otherwise you may omit it, as1
                i.e. :'
 $ '                 PS  -  -  ZULU : means to USERID.SPF.PROF(ZULU)'
 $ '                 PL  TEST  DATA : means from USERID.TEST.DATA(QSPPR1
               OF)'
 $ '        - The data-set USERID.A.B must be an existing PO data-set w1
               ith the'
 $ '          characteristics : LRECL=80 and RECFM=F (or FB).'
HELPLPN  EQU   *-HELPSPN
         EJECT
HELPP    $     'The PF-KEYs are defined as follows (HELP P, HELP PFK or1
                PFK) :',79
         DC    0H'0',AL2(HELPLP)
HELPSP   DC    CL4' '              INDENT THE FOLLOWING 4 SPACES
 $ '          <------ 25c. max. ------>           <------ 25c. max. ---1
               --->'
 $ ' PFK-1  :                            PFK-13 :'
 $ ' PFK-2  :                            PFK-14 :'
 $ ' PFK-3  :                            PFK-15 :'
 $ ' PFK-4  :                            PFK-16 :'
 $ ' PFK-5  :                            PFK-17 :'
 $ ' PFK-6  :                            PFK-18 :'
 $ ' PFK-7  :                            PFK-19 :'
 $ ' PFK-8  :                            PFK-20 :'
 $ ' PFK-9  :                            PFK-21 :'
 $ ' PFK-10 :                            PFK-22 :'
 $ ' PFK-11 :                            PFK-23 :'
 $ ' PFK-12 :                            PFK-24 :'
 $ ' PA1    : interrupt running QSP command (EMERGENCY EXIT).'
 $ ' PA2    : redisplay the current screen image (RESHOW).'
 $ ' ',76
 $ ' Enter PF nn ...sub-command... to redefine PFK-nn.'
 $ ' Enter PZ to restore all original PF-keys definitions.'
 $ ' Enter PS or PL <A> <B> <M> to save or restore your PF-keys definit1
               ions.'
HELPLP   EQU   *-HELPSP
         SPACE 2
         PRINT GEN
         SPACE 1
         END
