         MACRO                                                          00001
&NAME    EXODUS &REGS=,&RC=0,&LV=,&SP=0                                 00002
.*                                                                      00003
         GBLA  &ESAVEC(2),&ESAVEL,&ESAVEB(2)                            00004
         GBLB  &ESAVES(3)                                               00005
         GBLC  &ESAVEX,&ESAVEA                                          00006
         LCLB  &D,&F                                                    00007
         LCLC  &IDL                                                     00008
.*                                                                      00009
.*       EXODUS (EXTENDED RETURN) FUNCTION                              00010
.*             REWRITTEN 09-01-74, MACRO LEVEL 3                        00011
.*                                                                      00012
.*       THIS MACRO SUPPORTS THE FOLLOWING MODES: REENTRANT AND         00013
.*       NONREENTRANT TYPE IV SAVE AREAS.                      08-01-74 00014
.*                                                                      00015
.*       NOTE: THIS MACRO USES THE GENESIS RECURSIVE CALL FACILITY TO   00016
.*             GENERATE THE LM OR L INSTRUCTION.  THIS SAVES THE        00017
.*             DUPLICITY OF MACRO CODE.  THE IBM RETURN MACRO IS NOT    00018
.*             USED SO THAT EFFICIENT CODE MAY BE GENERATED.            00019
.*                                                                      00020
         AIF   ('&REGS' EQ '').I3  IF THERE ARE NO OVERRIDE REGS        00021
         AIF   (N'&REGS LE 2).I1   IF RIGHT NO. PARMS                   00022
         IHBERMAC 1012,REGS        ELSE FLAG                            00023
&F       SETB  1                   SET FAIL FLAG                        00024
         AGO   .I3                 CONTINUE                             00025
.I1      ANOP                                                           00026
         AIF   (T'&REGS(1) EQ 'N').I2  TEST FOR DIGITS                  00027
         IHBERMAC 1001,REGS,&REGS(1)                                    00028
&F       SETB  1                   SET FIAL FLAG                        00029
.I2      ANOP                                                           00030
         AIF   (N'&REGS EQ 1).I3                                        00031
         AIF   (T'&REGS(2) EQ 'N').I3                                   00032
         IHBERMAC 1001,REGS,&REGS(2)                                    00033
&F       SETB  1                                                        00034
.*                                                                      00035
.I3      ANOP                                                           00036
         AIF   ('&RC' NE '').I4                                         00037
         IHBERMAC 1014,RC                                               00038
&F       SETB  1                                                        00039
         AGO   .I6                                                      00040
.I4      ANOP                                                           00041
         AIF   ('&RC'(1,1) EQ '(').I6                                   00042
         AIF   (T'&RC NE 'N').I5                                        00043
         AIF   (&RC LE 4095).I6                                         00044
.I5      ANOP                                                           00045
         IHBERMAC 1001,RC,&RC                                           00046
&F       SETB  1                                                        00047
.*                                                                      00048
.I6      ANOP                                                           00049
         AIF   (NOT &F).G0                                              00050
         MEXIT                                                          00051
.*                                                                      00052
.*                                                                      00053
.G0      ANOP                                                           00054
         AIF   ('&NAME' EQ '').G1                                       00055
&NAME    DS    0H                                                       00056
.*                                                                      00057
.G1      ANOP                                                           00058
         AIF   (NOT &ESAVES(1) AND ('&LV' EQ '' OR '&LV' EQ '0')).G2    00059
         LA    1,0(,13)                                                 00060
.*                                                                      00061
.G2      ANOP                                                           00062
         L     13,4(,13)                                                00063
.*                                                                      00064
         AIF   ('&RC'(1,1) NE '(').G3                                   00065
         ST    &RC(1),16(,13)                                           00066
.*                                                                      00067
.G3      ANOP                                                           00068
         AIF   (NOT &ESAVES(1) AND ('&LV' EQ '' OR '&LV' EQ '0')).G8    00069
         AIF   ('&LV' NE '').G5                                         00070
         AIF   (&ESAVES(2)).G4                                          00071
         LA    0,&ESAVEL                                                00072
         AGO   .G7                                                      00073
.G4      ANOP                                                           00074
         ICM   0,15,&ESAVEL.(&ESAVEX)                                   00075
         AGO   .G7                                                      00076
.G5      ANOP                                                           00077
         AIF   (T'&LV NE 'N' OR T'&SP NE 'N').G6                        00078
         AIF   (&LV GT 4095 OR &SP NE 0).G6                             00079
         LA    0,&LV                                                    00080
         AGO   .G7                                                      00081
.G6      ANOP                                                           00082
         ICM   0,15,IHB&SYSNDX                                          00083
&D       SETB  1                                                        00084
.G7      ANOP                                                           00085
         SVC   10                                                       00086
.*                                                                      00087
.G8      ANOP                                                           00088
         AIF   (T'&REGS EQ 'O').G9                                      00089
         GENESIS REGS=&REGS,TYPE=(RECURSIVE,L)                          00090
         AGO   .G11                                                     00091
.*                                                                      00092
.G9      ANOP                                                           00093
         AIF   (&ESAVES(3)).G10                                         00094
         LM    14,12,12(13)                                             00095
         AGO   .G11                                                     00096
.*                                                                      00097
.G10     ANOP                                                           00098
         AIF ('&ESAVEA' NE 'GEN').G10B                                  00099
&ESAVEC(1) SETA &ESAVEB(1)                                              00100
&ESAVEC(2) SETA &ESAVEB(2)                                              00101
.G10B     ANOP                                                          00102
         AIF   (&ESAVEC(1) GT 99).G11                                   00103
         AIF   (&ESAVEC(2) GT 15).G10A                                  00104
         GENESIS REGS=(&ESAVEC(1),&ESAVEC(2)),TYPE=(RECURSIVE,L)        00105
         AGO   .G11                                                     00106
.G10A    ANOP                                                           00107
         GENESIS REGS=&ESAVEC(1),TYPE=(RECURSIVE,L)                     00108
.*                                                                      00109
.G11     ANOP                                                           00110
         AIF   ('&RC'(1,1) EQ '(').G13                                  00111
         AIF   (&RC EQ 0).G12                                           00112
         LA    15,&RC                                                   00113
         AGO   .G13                                                     00114
.G12     ANOP                                                           00115
         SLR   15,15                                                    00116
.*                                                                      00117
.G13     ANOP                                                           00118
         BR    14                                                       00119
         AIF   (NOT &D).G14                                             00120
&IDL     SETC  'IHB&SYSNDX'                                             00121
&IDL     DC    AL1(&SP),AL3(&LV)                                        00122
.G14     ANOP                                                           00123
*                                                                       00124
         MEND                                                           00125
