         MACRO
&NAME    INITL &FIELD,&CHAR
         LCLC  &LEN
&LEN     SETC  'L'''
         AIF   (K'&FIELD EQ 0).EROR
         AIF   (K'&CHAR EQ 0).BLANK
&NAME    MVI   &FIELD,&CHAR
.NXT     MVC   &FIELD+1(&LEN&FIELD-1),&FIELD
         MEXIT
.EROR    MNOTE 8,'*** FIELD TO BE SET MISSING ***'
         MEXIT
.BLANK   MNOTE *,'*** LITERAL MISSING - FIELD SET TO BLANKS ***'
&NAME    MVI   &FIELD,X'40'
         AGO   .NXT
         MEND
