         MACRO
&NAME    TERME &RC=0
* SOURCE LEVEL TERME    V01.M02 85/09/26 18:11 PSYRRS
         GBLA  &SIZE
         GBLB  &SASW
         GBLC  &OPSYS        GLOABAL SWITCH TO DEFINE OPERATING SYSTEM
         SPACE 1
         AIF   ('&SASW' EQ '1' AND '&OPSYS' NE 'DOS').DYNMC
&NAME    L     13,4(13)
         AGO   .RET
.DYNMC   ANOP
&NAME    LR    1,13
         L     13,4(13)
         LR    2,15
         FREEMAIN R,LV=&SIZE,A=(1)
         LR    15,2
.RET     ANOP
         AIF   ('&OPSYS' EQ 'DOS').DOSRET
         RETURN (14,12),T,RC=&RC
         AGO   .EXIT
.DOSRET  ANOP
         RETURN (14,12)      RETURN TO CALLER
.EXIT    ANOP
         SPACE 1
         MEND
