         MACRO
&NAME    USERCVT
***********************************************************************
*        FORMAT OF USER CVT USED AT VIC ROADS                         *
***********************************************************************
                                                                SPACE 1
USERCVT  DSECT
UCVTEYE  DS    D                       EYECATCHER 'USERCVT '
UCVTTMSP DS    D                       TIMESTAMP - TOD CLOCK FORMAT
UCVTLOAD DS    CL2                     IPL LOAD PARAMETER SUFFIX
UCVTSYSP DS    CL2                     IPL IEASYS PARAMETER SUFFIX
         DS    5D'0'                   UNUSED - SET TO ZEROES
USERCVTL EQU   *-USERCVT               LENGTH OF USERCVT
                                                                SPACE 1
         MEND
*---------------------------------------------------------------------*
