         MACRO
&NAME    STDSAVE &DSECT=NO
         LCLC   &DNAME
         AIF    ('&DSECT' EQ 'YES').LBL0010
         AIF    ('&DSECT' EQ 'NO').LBL0020
         MNOTE  12,'INVALID ''DSECT'' PARAMETER'
         MEXIT
.LBL0010 ANOP
         AIF    (T'&NAME EQ 'O').LBL001A
&DNAME   SETC   '&NAME'
         AGO    .LBL001B
.LBL001A ANOP
&DNAME   SETC   'STDSAVE'
.LBL001B ANOP
&DNAME             DSECT
.LBL0020 ANOP
REGISTER_SAVE_AREA DS    18F
TRACE_ID           DS    CL8
TRACE_DATA_1       DS    CL8
TRACE_DATA_2       DS    CL8
         MEND
