         MACRO
&NAME    TPUTE &COMMAND,&PARMS=
         LCLA  &NDX
&NDX     SETA  K'&COMMAND-2
&NAME    TPUT  =C&COMMAND,&NDX,&PARMS
         MEND
