         MACRO
&NAME    IEZCTGPL
         DSECT
***********************************************************************
* DESCRIBES THE CATALOG PARAMETER LIST. DOC IS: CATALOG DIAGNOSIS REF *
***********************************************************************
CTGPL    DS    0F
CTGOPTN1 DC    X'00'
CTGBYPSS EQU   X'80'
CTGNAME  EQU   X'04'
CTGCNAME EQU   X'02'
CTGOPTN2 DC    X'00'
CTGGTALL EQU   X'40'
CTGOPTN3 DC    X'00'
CTGLOC   EQU   X'20'
CTGNUM   EQU   X'02'
CTGAM0   EQU   X'01'
CTGOPTN4 DC    X'00'
CTGBYPMT EQU   X'08'
CTGICFC  EQU   X'02'
CTGICFOR EQU   X'01'
CTGENT   DC    X'00',AL3(0)
CTGCAT   DC    F'0'
         ORG   CTGCAT
CTGVOL   DC    F'0'
CTGWKA   DC    F'0'
CTGDSORG DC    X'0000'
         ORG   CTGDSORG
CTGOPTNS DC    X'0000'
CTGLTCAT EQU   X'20'
CTGTYPE  DC    X'00'
CTGNOFLD DC    X'00'
CTGDDNM  DC    F'0'
         ORG   CTGDDNM
CTGFDBK  DC    X'0000'
CTGFBFLG DC    X'0000'
CTGJSCB  DC    F'0'
CTGFIELD DC    F'0'
LCTGPL   EQU   *-CTGPL
         MEND
