         MACRO
&NAME    IEZCTGFL
         DSECT
***********************************************************************
* DESCRIBES THE FIELD PARAMETER LIST. DOC IS: CATALOG DIAGNOSIS REF   *
***********************************************************************
CTGFL    DS    0F
CTGFLDNO DC    X'00'
CTGFLDCD DC    X'00'
CTGFLDGC DC    X'00'
CTGFLDRE DC    X'00'
CTGFLDWA DC    F'0'
CTGFLDNM DC    F'0'
CTGFLCHN DC    F'0'
CTGFLDAT DC    2F'0'
         ORG   CTGFLDAT
CTGFLNG  DC    F'0'
CTGFLPT  DC    F'0'
LCTGFL   EQU   *-CTGFL
         MEND
