./ ADD NAME=MOWSTART
         MACRO
&NAME    MOWSTART &SAVE=(14,12),&T=,&IDENT=*,&BASE=12,&EQU=YES,&RENT=, *
               &R1=R1,&R2=R2,&R3=R3,&R4=R4,&R5=R5,&R6=R6,&RB=RB,       *
               &R7=R7,&R8=R8,&R9=R9,&R10=R10,&R11=R11,&R12=R12,        *
               &R13=R13,&R14=R14,&R15=R15,&R0=R0,&AREA=SAVEAREA,       *
               &SP=0,&SAREA=,&STOR=RES
.* CHANGED BY RMF SO PARM CAN BE PASSED IN R0
.* CHANGED BY ACF TO ADD STOR TO CONTROL WHERE GETMAIN OCCURS. USE RU
         GBLB  &NREN,&NSAR
         GBLC  &MOWSECT,&SUBP,&ARNAME,&RBASE
         LCLA  &WK
         LCLC  &A,&B,&TC
         LCLC  &R0L,&R1L,&R2L,&R3L,&R4L,&R5L,&R6L,&R7L,&R8L,&R9L,&R10L
         LCLC  &R11L,&R12L,&R13L,&R14L,&R15L
         AIF   ('&NAME' NE '').OK
         MNOTE 16,'THERE MUST BE AN ENTRY IN THE NAME FIELD'
         MEXIT
.OK      ANOP
&NREN    SETB  ('&RENT' EQ 'NO')
&NSAR    SETB  ('&SAREA' EQ 'NO')
&MOWSECT SETC  '&NAME'
&RBASE   SETC  '&RB'
&NAME    CSECT
         USING *,&BASE
&TC      SETC  '&T'
         AIF   ((&NREN) OR (&NSAR)).SAVO
&A       SETC  '&SAVE(1)'
         AIF   (N'&SAVE EQ 1).SAV1
         AIF   (N'&SAVE NE 2).SAVE
&B       SETC  '&SAVE(2)'
.SAV1    AIF   (&A GE 3).NOTALL
         AIF   ('&A' EQ '0').CHK1
         AIF   (N'&SAVE EQ 2).SET0
&B       SETC  '&A'
         AGO   .SET0
.CHK1    AIF   (N'&SAVE EQ 1).SET1
         AIF   ('&B' NE '0').SET0
.SET1    ANOP
&B       SETC  '1'
.SET0    ANOP
         AIF   ('&TC' EQ 'T').SET14
         SAVE  (0,&B),&TC,&IDENT
         AGO   .SAVT
.SET14   SAVE  (14,&B),,&IDENT
         AGO   .SAVT
.NOTALL  AIF   (&A GE 14).TEST2
         SAVE  (0,1),&TC,&IDENT
         SAVE  &SAVE
         AGO   .SAVT
.TEST2   AIF   (N'&SAVE EQ 1).SB1
         AIF   ((&B GE 1) AND (&B LE 12)).SAVE
.SB1     ANOP
&B       SETC  '1'
.SAVE    AIF   ('&B' EQ '').SAVO
         SAVE  (&SAVE(1),&B),&TC,&IDENT
         AGO   .SAVT
.SAVO    SAVE  &SAVE,&TC,&IDENT
.SAVT    ANOP
         LR    &BASE,15
         AIF   (&NSAR).CHKEQU
         AIF   ('&RENT' EQ 'NO').NORENT
&SUBP    SETC  '&SP'
         GETMAIN RU,LV=MOWWORKL,SP=&SUBP,LOC=&STOR
         ST    1,8(13)
         ST    13,4(1)
         LM    0,1,20(13)
         L     13,8(13)
         USING MOWWORK,13
MOWWORK  DSECT
         DS    18A
&NAME    CSECT
         AGO   .CHKEQU
.NORENT  ST    13,&AREA+4
         AIF   (&BASE EQ 3).SET4
&WK      SETA  3
         AGO   .LR
.SET4    ANOP
&WK      SETA  4
.LR      LR    &WK,13
         CNOP  0,4
         BAL   13,*+76
&ARNAME  SETC  '&AREA'
&ARNAME  DC    18F'0'
         ST    13,8(&WK)
.CHKEQU  AIF   ('&EQU' NE 'YES').NOEQU
&R0L     SETC  '&R0'(1,8)
&R1L     SETC  '&R1'(1,8)
&R2L     SETC  '&R2'(1,8)
&R3L     SETC  '&R3'(1,8)
&R4L     SETC  '&R4'(1,8)
&R5L     SETC  '&R5'(1,8)
&R6L     SETC  '&R6'(1,8)
&R7L     SETC  '&R7'(1,8)
&R8L     SETC  '&R8'(1,8)
&R9L     SETC  '&R9'(1,8)
&R10L    SETC  '&R10'(1,8)
&R11L    SETC  '&R11'(1,8)
&R12L    SETC  '&R12'(1,8)
&R13L    SETC  '&R13'(1,8)
&R14L    SETC  '&R14'(1,8)
&R15L    SETC  '&R15'(1,8)
         AIF   (&BASE NE 12).N12
&R12L    SETC '&RB'(1,8)
         AGO   .EQUS
.N12     AIF   (&BASE NE  2).N2
&R2L     SETC '&RB'(1,8)
         AGO   .EQUS
.N2      AIF   (&BASE NE  3).N3
&R3L     SETC '&RB'(1,8)
         AGO   .EQUS
.N3      AIF   (&BASE NE  4).N4
&R4L     SETC '&RB'(1,8)
         AGO   .EQUS
.N4      AIF   (&BASE NE  5).N5
&R5L     SETC '&RB'(1,8)
         AGO   .EQUS
.N5      AIF   (&BASE NE  6).N6
&R6L     SETC '&RB'(1,8)
         AGO   .EQUS
.N6      AIF   (&BASE NE  7).N7
&R7L     SETC '&RB'(1,8)
         AGO   .EQUS
.N7      AIF   (&BASE NE  8).N8
&R8L     SETC '&RB'(1,8)
         AGO   .EQUS
.N8      AIF   (&BASE NE  9).N9
&R9L     SETC '&RB'(1,8)
         AGO   .EQUS
.N9      AIF   (&BASE NE 10).N10
&R10L    SETC '&RB'(1,8)
         AGO   .EQUS
.N10     AIF   (&BASE NE 11).N11
&R11L    SETC '&RB'(1,8)
         AGO   .EQUS
.N11     AIF   (&BASE NE 13).N13
&R13L    SETC '&RB'(1,8)
         AGO   .EQUS
.N13     AIF   (&BASE NE 14).N14
&R14L    SETC '&RB'(1,8)
         AGO   .EQUS
.N14     AIF   (&BASE NE 15).N15
&R15L    SETC '&RB'(1,8)
         AGO   .EQUS
.N15     AIF   (&BASE NE  0).N0
&R0L     SETC '&RB'(1,8)
         AGO   .EQUS
.N0      AIF   (&BASE NE  1).EQUS
&R1L     SETC '&RB'(1,8)
.EQUS    ANOP
&R0L     EQU   0
&R1L     EQU   1
&R2L     EQU   2
&R3L     EQU   3
&R4L     EQU   4
&R5L     EQU   5
&R6L     EQU   6
&R7L     EQU   7
&R8L     EQU   8
&R9L     EQU   9
&R10L    EQU   10
&R11L    EQU   11
&R12L    EQU   12
&R13L    EQU   13
&R14L    EQU   14
&R15L    EQU   15
.NOEQU   ANOP
         MEND
./ ADD NAME=MOREND
         MACRO
&NAME    MOREND &RENT=,&RC=0,&SP=,&SAVE=(0)
.* CHANGED BY RMF SO PARM CAN BE RETURNED IN R1
.* CHANGED BY ACF SO RETURN CODE CAN BE IN REG OR LITERAL 19 FEB 87
.* CHANGED BY ACF TO USE RU FORM OF FREEMAIN
         LCLC  &A,&B
         GBLC  &MOWSECT,&SUBP,&ARNAME
         GBLB  &NREN,&NSAR
         AIF   ('&SYSECT' EQ '&MOWSECT').CHKR
&MOWSECT CSECT
.CHKR    ANOP
&NAME    DS    0H
&NREN    SETB  (('&RENT' EQ 'NO') OR &NREN)
         AIF   (&NSAR).RETR
         AIF   (&NREN).NORENT
         AIF   (('&SAVE(1)' NE '1') AND ('&SAVE(2)' NE '1')).NOT1
         LR    14,1
         LR    1,13
         AGO   .L
.NOT1    ANOP
         LR    1,13
.L       L     13,4(1)
         AIF   (('&SAVE(1)' NE '1') AND ('&SAVE(2)' NE '1')).NS1
         ST    14,24(13)
.NS1     AIF   (('&SAVE(1)' NE '0') AND ('&SAVE(2)' NE '0')).NS2
         ST    0,20(13)
.* * * * * * * *
.NS2     AIF   ('&RC'(1,1) EQ '(').RCREG  IF IN RX FORM  ..
         AGO   .NS15
.RCREG   ANOP                             ELSE, IN A REG ..
         AIF   ('&RC' EQ '(15)').GOTRC    IF NOT REG 15..
         AIF   ('&RC' EQ '(R15)').GOTRC   IF NOT REG 15..
         LR    15,&RC                     LOAD R15 WITH CODE
.GOTRC   ANOP
.* * * * * * * *
         ST    15,16(13)
.NS15    ANOP
         AIF   ('&SUBP' NE '').N0
&SUBP    SETC  '0'
.N0      AIF   (T'&SP EQ 'O').FR1
&SUBP    SETC  '&SP'
.FR1     FREEMAIN RU,LV=MOWWORKL,A=(1),SP=&SUBP
         AIF   ('&RC' EQ '(15)').R15
         AIF   ('&RC' EQ '(R15)').R15
.* * * * * * * *
         AIF   ('&RC'(1,1) EQ '(').RCREG1 IF IN RX FORM  ..
         AGO   .NS15A
.RCREG1  ANOP                             ELSE, IN A REG ..
         LR    15,&RC                     LOAD R15 WITH CODE
         AGO   .R15
.NS15A   ANOP
.* * * * * * * *
         RETURN (14,12),T,RC=&RC
         AGO   .DUMM
.R15     ANOP
         RETURN (14,12),T
.DUMM    ANOP
MOWWORK  DSECT
MOWWORKL EQU   *-MOWWORK
&SYSECT  CSECT
         AGO   .LTORG
.NORENT  ANOP
         L     13,&ARNAME.+4
.RETR    L     14,12(13)
         RETURN (2,12),T,RC=&RC
.LTORG   LTORG
         MEND
