         MACRO
&NAME    MOREND &RENT=,&RC=0,&SP=,&SAVE=(0)
.* CHANGED BY RMF SO PARM CAN BE RETURNED IN R1
.* CHANGED BY ACF SO RETURN CODE CAN BE IN REG OR LITERAL 19 FEB 87
.* CHANGED BY ACF TO USE RU FORM OF FREEMAIN
         LCLC  &A,&B
         GBLC  &MOWSECT,&SUBP,&ARNAME
         GBLB  &NREN,&NSAR
         AIF   ('&SYSECT' EQ '&MOWSECT').CHKR
&MOWSECT CSECT
.CHKR    ANOP
&NAME    DS    0H
&NREN    SETB  (('&RENT' EQ 'NO') OR &NREN)
         AIF   (&NSAR).RETR
         AIF   (&NREN).NORENT
         AIF   (('&SAVE(1)' NE '1') AND ('&SAVE(2)' NE '1')).NOT1
         LR    14,1
         LR    1,13
         AGO   .L
.NOT1    ANOP
         LR    1,13
.L       L     13,4(1)
         AIF   (('&SAVE(1)' NE '1') AND ('&SAVE(2)' NE '1')).NS1
         ST    14,24(13)
.NS1     AIF   (('&SAVE(1)' NE '0') AND ('&SAVE(2)' NE '0')).NS2
         ST    0,20(13)
.* * * * * * * *
.NS2     AIF   ('&RC'(1,1) EQ '(').RCREG  IF IN RX FORM  ..
         AGO   .NS15
.RCREG   ANOP                             ELSE, IN A REG ..
         AIF   ('&RC' EQ '(15)').GOTRC    IF NOT REG 15..
         AIF   ('&RC' EQ '(R15)').GOTRC   IF NOT REG 15..
         LR    15,&RC                     LOAD R15 WITH CODE
.GOTRC   ANOP
.* * * * * * * *
         ST    15,16(13)
.NS15    ANOP
         AIF   ('&SUBP' NE '').N0
&SUBP    SETC  '0'
.N0      AIF   (T'&SP EQ 'O').FR1
&SUBP    SETC  '&SP'
.FR1     FREEMAIN RU,LV=MOWWORKL,A=(1),SP=&SUBP
         AIF   ('&RC' EQ '(15)').R15
         AIF   ('&RC' EQ '(R15)').R15
.* * * * * * * *
         AIF   ('&RC'(1,1) EQ '(').RCREG1 IF IN RX FORM  ..
         AGO   .NS15A
.RCREG1  ANOP                             ELSE, IN A REG ..
         LR    15,&RC                     LOAD R15 WITH CODE
         AGO   .R15
.NS15A   ANOP
.* * * * * * * *
         RETURN (14,12),T,RC=&RC
         AGO   .DUMM
.R15     ANOP
         RETURN (14,12),T
.DUMM    ANOP
MOWWORK  DSECT
MOWWORKL EQU   *-MOWWORK
&SYSECT  CSECT
         AGO   .LTORG
.NORENT  ANOP
         L     13,&ARNAME.+4
.RETR    L     14,12(13)
         RETURN (2,12),T,RC=&RC
.LTORG   LTORG
         DS    0H                 FORCE TO HALFWORD BOUNDARY
         MEND
