.* A=24/31,   R=24/31/ANY
.*
         MACRO
&NAME    BEGIN &A=31,&R=ANY
&NAME    CSECT
         AIF   ('&A' NE '24' AND '&A' NE '31' AND '&A' NE 'ANY').NOA
&NAME    AMODE &A
.NOA     ANOP
         AIF   ('&R' NE '24' AND '&R' NE '31' AND '&R' NE 'ANY').NOR
&NAME    RMODE &R
.NOR     ANOP
         B     28(R15)
         DC    CL9'&NAME'
         DC    CL9'&SYSDATE'
         DC    CL6'&SYSTIME'
         STM   14,12,12(13)            Save Registers
         LR    12,15                   LOAD ADDRESS OF ENTRY POINT
         USING &NAME,12                R12 BASE REGISTER
         EJECT
         MEND
