         MACRO
&NAME    FIN
         GBLC  &###L
&NAME    LR    3,13                SAVE NEW
         L     13,4(3)             RESTORE OLD
         LR    2,15                SAVE RC
         FREEMAIN RU,A=(3),LV=&###L
         LR    15,2                RESTORE RC
*        RETURN (14,12),RC=(15)
         L     14,12(0,13)
         LM    0,12,20(13)
         BSM   0,14
         MEND
