         MACRO
*--------------------------------------------------------------------
* SVM00000 data module map
*--------------------------------------------------------------------
&NAME    SVM00000 &DSECT=NO
         AIF    ('&DSECT' EQ 'NO').NODSECT
&NAME    DSECT
.NODSECT ANOP
SVMHDR   DC     C'SVM00000'            header (eye catcher)
TIMECB   DC     F'0'                   for IRXF@FWT (L_FWT)
         DS     0D
         MEND
