         MACRO
***********************************************************************
* Parameter DSECT for SVMALC6 module
* Dynalloc interface module
* SVM 03/03/2003 - added DSECT parm and optional dsn(member)
* SVM 12/19/2002 - re-created
***********************************************************************
&NAME    SVMPAR6 &DSECT=NO
         SPACE 1
* Parameter mapping for SVMALC6:
         AIF   ('&DSECT' NE 'YES').NODSECT
&NAME    DSECT
.NODSECT ANOP
TDDN     DS    CL8           Dynalloc-output, Unalloc-input
TDSORG   DS    XL2           Dynalloc-output, Unalloc-n/a
TDSN     DS    CL54          Dynalloc-input,  Unalloc-n/a
TVOL     DS    CL6           Dynalloc-input/output, Unalloc-n/a
TERR     DS    XL4           Both-Copy of S99ERROR and S99INFO
         SPACE 1
         MEND
