         MACRO
.*                                     LOC=BELOW or RES
&NAME    WORK  &LV=WRKLEN,&LOC=RES
         GBLC  &###L
&###L    SETC  '&LV'
         GETMAIN RU,LV=&###L,LOC=&LOC
         ST    13,4(1)             STORE OLD TO NEW
         ST    1,8(13)             STORE NEW TO OLD
         L     1,24(13)            RESTORE R1 FROM OLD
         L     0,20(13)            RESTORE R0 FROM OLD
         L     13,8(13)            RESET BASE FOR NEW
         USING &NAME,13
         MEND
