KLAH     TITLE 'K A L A H -- ANCIENT EGYPTIAN BOARD GAME'
         SPACE 1
        PRINT  OFF
*** COPYRIGHT 1976 - REGENTS OF THE UNIVERSITY OF CALIFORNIA,     ***
*** CAMPUS COMPUTING NETWORK   (SHARE CODE 'UR')  -  1/15/76      ***
*** ALTHOUGH WE ARE RUNNING THIS MODULE IN OUR PRODUCTION SYSTEM, ***
*** NO WARRANTY, EXPRESSED OR IMPLIED, IS MADE BY CCN AS TO THE   ***
*** FUNCTIONING OR CORRECTNESS OF THE FOLLOWING CODE.             ***
         MACRO
&LAB    @MSG   &TEXT
         GBLC  &LABL1,&LABL2
         GBLA  &LEN(30),&I,&L
         AIF   ('&LAB' EQ '').GO
&I       SETA  0
&LABL1   SETC  '&LAB'
&LABL2   SETC  '&LAB&SYSNDX'
&LABL2   EQU   *
.GO      ANOP
&L       SETA  K'&TEXT-2
&I       SETA  &I+1
&LEN(&I) SETA  &L
         DC    C&TEXT
         MEND
         MACRO
        @MSGGEN &DUMMY
         GBLC  &LABL1,&LABL2
         GBLA  &LEN(30),&I,&L
&LABL1   DC    A(&LABL2)
         DC    AL2(&I)
&L       SETA  1
.LOOP    AIF   (&L GT &I).EXIT
         DC    AL2(&LEN(&L))
&L       SETA  &L+1
         AGO   .LOOP
.EXIT    MEND
         MACRO
&NAME   #CALL  &WHERE
         AIF   ('&WHERE' NE '').W1
         MNOTE 8,'--- "WHERE" OPERAND MISSING ---'
         MEXIT
.W1      AIF   ('&WHERE'(1,1) EQ '(').W2
&NAME    L     R15,=A(&WHERE)      GET ENTRY POINT
         AGO   .W3
.W2      AIF   ('&WHERE' EQ '(15)').W4
         AIF   ('&WHERE' EQ '(R15)').W4
&NAME    LR    R15,&WHERE          SET ENTRY POINT
.W3      BASR  R14,R15             GO TO ROUTINE
         MEXIT
.W4      ANOP
&NAME    BASR  R14,R15             GO TO ROUTINE
         MEND
         MACRO
&NAME   #DSP   &A,&N
&NAME    BAS   R14,&A
         NOP   &N*4
         MEND
         MACRO
&NAME   #XENT  &DUMMY
         CNOP  0,8
&NAME    STM   R14,R12,12(R13)     SAVE REGISTERS
         B     16(,R15)            BRANCH AROUND ID
         DC    CL8'&NAME'          IDENTIFIER
         LR    R8,R15              SET BASE REGISTER
         USING &NAME,R8            SET ADDRESSABILITY
         LR    R15,R13             PREVIOUS SAVE AREA
         LA    R13,18*4(R13)       NEW CURRENT SAVE AREA
         ST    R13,8(R15)          LINK SAVE AREAS
         ST    R15,4(R13)
         SPACE 1
         MEND
         MACRO
&NAME   #XRET  &RC=
&NAME    L     R13,4(R13)          PREVIOUS SAVE AREA
         AIF   ('&RC' EQ '').N1
         AIF   ('&RC'(1,1) EQ '(').N2
         AIF   ('&RC' NE '0').N3
.N1      XR    R15,R15             SET RC=0
         ST    R15,16(R13)         STORE IT (R15)
         AGO   .N4
.N2      ST    &RC(1),16(R13)      STORE RC (R15)
         AGO   .N4
.N3      MVC   16(4,R13),=AL4(&RC) SET RC (R15)
.N4      LM    R14,R12,12(R13)     RESTORE REGISTERS
         MVI   12(R13),X'FF'       SET RETURN INDICATOR
         BR    R14                 RETURN
         SPACE 1
         MEND
         MACRO
        #XEND  &DUMMY
        LTORG  ,                   LITERALS
         SPACE 1
         DROP  R8                  END OF LOCAL ADDRESSABILITY
         MEND
        PRINT  ON
         SPACE 1
KALAH    START 0
         SPACE 1
*- - - - - - - - - - - - - - - - - - - - - - - - - - - - - - - - - - -*
*   KALAH :    THIS PROGRAM ALLOWS A USER TO PLAY THE COMPUTER IN     *
*              THE GAME OF KALAH. THE USER IS ASKED VARIOUS INITIAL   *
*              PARAMETERS VALUES AND THEN THE PLAY ALTERNATES WITH    *
*              THE USER GIVING HIS MOVES AS PIT NUMBERS.              *
*   AUTHOR :   DON D WORTH                                            *
*              FULL SCREEN BY : MOINIL P.A.                           *
*                               COMPUTING CENTRE                      *
*                               J.R.C. - ISPRA ESTABLISHMENT          *
*                               21020 ISPRA (VA), ITALY               *
*- - - - - - - - - - - - - - - - - - - - - - - - - - - - - - - - - - -*
         SPACE 1
        PRINT  NOGEN
        $DEFREG
*------- MAIN ENTRY, INITIALIZE
*        HOUSEKEEPING
         SPACE 1
        $XENT  BASE=(R11,R12),LV=DATALEN,TYPE=RENT
         LR    R9,R13              SET DATA ADDRESSABILITY
         USING DATA,R9
         MVC   EXTR(LEXTR),EXTRP
         XC    ATSO,ATSO
        EXTRACT ATSO,'S',FIELDS=(TSO),MF=(E,EXTR)
         L     R2,ATSO
         TM    0(R2),X'80'
         BZ    NOTTSO              WE ARE'NT IN TSO
         XC    EXTR(LEXTR),EXTR
         XC    ATSO,ATSO
        GTSIZE ,
         LTR   R15,R15
         BNZ   ERGTSZ              ERROR RETURN CODE
         LTR   R15,R0
         BZ    NDTERM              NOT DISPLAY TERMINAL
         CL    R1,=F'80'           TEST LINE LENGTH
         BE    TSTSC
         CL    R1,=F'132'
         BNE   NDTERM
         CL    R0,=F'27'           TEST NUMBER OF LINES
         BNE   NDTERM
         B     SETSCT
TSTSC    CL    R0,=F'24'
         BE    SETSCT
         CL    R0,=F'32'
         BE    SETSCT
         CL    R0,=F'43'
         BNE   NDTERM
SETSCT   OI    FLAGS,SCTERM
         B     NDTERM+L'NDTERM
NDTERM   NI    FLAGS,255-SCTERM
         XC    LIST0(5*4),LIST0    RESET LIST
         MVI   VPL,C'B'            LET HIM GO FIRST
         MVC   MAXLV(2),=H'2'      DEFAULT LEVEL
         MVC   PPP(2),=H'6'        DEFAULT PEBS/PIT
         LA    R1,INMSG            INITIAL MESSAGE
         LA    R0,LGINMSG          LENGTH
        #DSP   DSPLAY,0            GIVE IT TO HIM          CALL FS = 0
         LA    R1,REPLY            WHERE TO REPLY
         ST    R1,LIST0+2*4        INTO LIST
         LA    R1,L'REPLY          READ LENGTH
         ST    R1,LIST0+3*4        INTO LIST
         SPACE 1
*------- ASK USER FOR NEW GAME PARAMETERS
*        SEE IF USER WANTS TO CHANGE DEFAULTS
         SPACE 1
NEWGAME  L     R1,=A(ASKPARMS)     FIND MESSAGE
         LA    R0,LASKPARM         LENGTH
        #DSP   DSPLAY,1            ASK HIM                 CALL FS = 1
         MVI   OPTS,0              NO OPTIONS SELECTED YET
         LA    R1,REPLY            FIND STRING
         L     R0,LIST0+4*4        GET READ LENGTH
         LTR   R0,R0               NULL?
         BNP   START               LEAVE THINGS ALONE
SELOPTS  CLI   0(R1),C'L'          LOOK-LEVEL?
         BNE   *+L'*+4             NO
         OI    OPTS,OPTSL          YES
         CLI   0(R1),C'P'          PEBBLES PER PIT?
         BNE   *+L'*+4             NO
         OI    OPTS,OPTSP          YES
         CLI   0(R1),C'T'          TRACE LEVEL?
         BNE   *+L'*+4             NO
         OI    OPTS,OPTST          YES
         CLI   0(R1),C'W'          WHO FIRST?
         BNE   *+L'*+4             NO
         OI    OPTS,OPTSW          YES
         CLI   0(R1),C'B'          BOARD LAYOUT?
         BNE   *+L'*+4             NO
         OI    OPTS,OPTSB          YES
         CLI   0(R1),C'V'          VERIFY MOVES?
         BNE   *+L'*+4             NO
         OI    OPTS,OPTSV          YES
         LA    R1,1(R1)            NEXT CHAR
         BCT   R0,*+L'*+4          GO ON
         B     SELEND
         CLI   0(R1),C' '
         BNE   *-16
         LA    R1,1(R1)            NEXT CHAR
         BCT   R0,*+L'*+4          GO ON
         B     SELEND
         CLI   0(R1),C' '
         BE    *-16
         B     SELOPTS             GO LOOK
SELEND   CLI   OPTS,0              NOTHING SELECTED?
         BE    START               NOPE, SKIP ALL OF EM
         SPACE 1
*------- ASK USER FOR LOOK-AHEAD LEVEL
         SPACE 1
         TM    OPTS,OPTSL          ASK LEVEL?
         BZ    REASKPPP            NO
         LA    R0,LASKLHL          USE FULL LENGTH
         B     RELHL+L'RELHL       SKIP LENGTH LOAD
RELHL    LA    R0,80               MINIMUM LENGTH
         L     R1,=A(ASKLHL)       GET MESSAGE
        #DSP   DSPLAY,2                                    CALL FS = 2
         TM    REPLY,X'F0'         NUMERIC VALUE?
         BNO   RELHL               NO
         PACK  DBLW(8),REPLY(1)    CONVERT IT
         CVB   R1,DBLW             GET IT
         LTR   R1,R1               MUST BE NON-ZERO
         BZ    RELHL               NO GOOD
         STH   R1,MAXLV            SAVE IT
         SPACE 1
*------- ASK FOR NUMBER OF PEBBLES PER PIT
         SPACE 1
REASKPPP TM    OPTS,OPTSP          PEBBLES PER PIT
         BZ    REVER               NO, GO ON
         LA    R1,ASKPPP           WHERE IS MESSAGE
         LA    R0,L'ASKPPP         LENGTH
        #DSP   DSPLAY,2            GO GET NUMBER           CALL FS = 2
         TM    REPLY,X'F0'         NUMERIC?
         BNO   REASKPPP            NO
         PACK  DBLW(8),REPLY(1)    GET IT
         CVB   R1,DBLW             LOAD INTO REG
         STH   R1,PPP              SAVE FOREVER
         SPACE 1
*------- ASK USER IF HE WANTS VERIFICATION
         SPACE 1
REVER    TM    OPTS,OPTSV          VERIFY?
         BZ    RETRAC              NO
         LA    R1,VERMSG
         LA    R0,L'VERMSG
        #DSP   DSPLAY,2            ASK HIM                 CALL FS = 2
         CLI   REPLY,C'N'          NO?
         BNE   *+L'*+8
         NI    FLAGS,255-VERIFY    NO MORE VERIFY
         B     RETRAC
         CLI   REPLY,C'Y'          YES?
         BNE   REVER               NOPE, ITS ????
         OI    FLAGS,VERIFY        SET FLAG
         SPACE 1
*------- ASK FOR TRACE LEVEL MAXIMUM
         SPACE 1
RETRAC   TM    OPTS,OPTST          TRACE?
         BZ    REFIRST             NO
         LA    R1,ASKTRAC
         LA    R0,LASKTRAC         GET MESSAGE LENGTH
        #DSP   DSPLAY,2            ASK HIM                 CALL FS = 2
         CLI   REPLY,C'R'          RESET?
         BNE   *+L'*+12            NO
         MVI   TRACE,0             RESET COMPARES
         NI    FLAGS,255-TESTING   SHUT IT UP
         B     REFIRST
         TM    REPLY,X'F0'         OK?
         BNO   RETRAC              NO
         PACK  DBLW(8),REPLY(1)    GET IT
         CVB   R1,DBLW             GET IT IN REG
         STC   R1,TRACE            SAVE FOR COMPARES
         OI    FLAGS,TESTING       DO IT EACH TURN
         SPACE 1
*------- ASK WHO GOES FIRST
         SPACE 1
REFIRST  TM    OPTS,OPTSW          WHO FIRST?
         BZ    REBOARD             NO
         LA    R1,ASKFIR
         LA    R0,L'ASKFIR
        #DSP   DSPLAY,2                                    CALL FS = 2
         CLI   REPLY,C'M'          HIM?
         BNE   *+L'*+8             NO
         MVI   VPL,C'B'            SET HIM FIRST
         B     REBOARD
         CLI   REPLY,C'Y'          ME?
         BNE   REFIRST             NO, INVALID
         MVI   VPL,C'A'            SET ME FIRST
         SPACE 1
*------- ASK FOR INTITIAL BOARD SETTINGS
         SPACE 1
REBOARD  TM    OPTS,OPTSB          BOARD SETUP?
         BZ    START               NOPE
         LA    R1,ASKBRD           MESSAGE
         LA    R0,LASKBRD          LENGTH
        #DSP   DSPLAY,2            GO ASK                  CALL FS = 2
         L     R0,LIST0+4*4        GET REPLY LENGTH
         LTR   R0,R0               NULL?
         BZ    REBOARD             YES, ASK AGAIN
         LA    R1,REPLY            FIND REPLY BUFFER
         LA    R2,VARR             FIRST PIT
         LA    R15,14              NUMBER OF PITS I NEED
FILLPITS TM    0(R1),X'F0'         NUMERIC YET?
         BO    GOTDIG              YES
         LA    R1,1(R1)            ELSE, SKIP AHEAD
         BCT   R0,FILLPITS         GO ON
         B     REBOARD             NOT ENOUGH
GOTDIG   LR    R14,R1              SAVE START
GOTDIG1  TM    0(R1),X'F0'         NUMERIC?
         BNO   GOTBLK              NO
         LA    R1,1(R1)            NEXT CHAR
         BCT   R0,GOTDIG1          DO IT
GOTBLK   LR    R3,R1               GET FINAL PTR
         SR    R3,R14              FIND TRUE LENGTH
         CH    R3,=H'3'            TOO LARGE?
         BH    REBOARD             YES, UGLY
         BCT   R3,*+L'*+6          EXECUTE LENGTH
         PACK  DBLW(8),0(0,R14)         << EXECUTED >>
         EX    R3,*-6              CONVERT TO DECIMAL
         CVB   R3,DBLW             GET IT IN REG
         STC   R3,0(R2)            SAVE IN ARRAY
         LA    R2,1(R2)            NEXT ARRAY MEMBER
         BCT   R15,FILLPITS        CONTINUE
         MVC   SCREEN+480(80),BLANKS
         MVC   SCREEN+480(14),=C'IS THIS RIGHT?'
         LA    R0,480+14           LENGTH
         XR    R1,R1               FIRST BOARD
        #DSP   DBOARD,2            DISPLAY BOARD           CALL FS = 2
BOARDOK  CLI   REPLY,C'Y'          YES?
         BE    START1              YES, GO TO IT
         CLI   REPLY,C'N'          NO?
         BE    REBOARD             NO, GO ASK AGAIN
         LA    R0,14               LENGTH
         LA    R1,SCREEN+480       MESSAGE
        #DSP   DSPLAY,3            ASK AGAIN               CALL FS = 3
         B     BOARDOK             SEE IF SO
         SPACE 1
*------- SET UP INITIAL BOARD
         SPACE 1
START    LA    R15,VARR            FIND BOARD ARRAY
         LH    R1,PPP              GET PEBBLES PER PIT
         LA    R0,14               NUMBER OF PITS
         STC   R1,0(R15)           FILL A PIT
         LA    R15,1(R15)          NEXT PIT
         BCT   R0,*-8
         MVI   VAK,0               NOTHING IN KALAHS
         MVI   VBK,0               EITHER ONE
START1   CLI   VPL,C'A'            WHO FIRST?
         BE    MEFIRST             ME
         SPACE 1
*------- GIVE HIM A MOVE FIRST
*        ASK USER FOR HIS MOVE
         SPACE 1
DISP     MVC   SCREEN+480(80),BLANKS
         MVC   SCREEN+480(L'YOURMOVE),YOURMOVE
         LA    R1,SCREEN+480+L'YOURMOVE WHERE TO PUT WISE CRACK
DISP1    OC    VB1(6),VB1          CAN HE MOVE AT ALL?
         BZ    ENDGAME             NO, STOP THEN
         CLC   VAK(1),VBK          COMPARE SCORES SO FAR
         BE    DISP2               NECK AND NECK
         MVI   0(R1),C','          I CAN'T RESIST...
         LA    R1,2(R1)            I HAVE TO SAY SOMETHING
         L     R0,=A(MSGA)         ASSUME I'M WINNING
         BH    *+L'*+4             YES, I AM
         L     R0,=A(MSGB)         NO I'M NOT
         BAS   R14,WISECRAK        GENERATE SOMETHING
DISP2    LA    R0,SCREEN           FIND LENGTH
         SR    R1,R0               GET IT
         LR    R0,R1
         XR    R1,R1               SHOW MAIN BOARD
        #DSP   DBOARD,4            DO IT TO IT             CALL FS = 4
DISP3    OC    LIST0+4*4(4),LIST0+4*4 NULL READ?
         BZ    DISP                THEN RE-DISPLAY SCREEN
         TM    REPLY,X'F0'         NUMERIC?
         BO    PITOK1              YES
NONO     LA    R1,BADPIT           NO, UGLY
         LA    R0,L'BADPIT         LENGTH OF MESSAGE
        #DSP   DSPLAY,5            GIVE ERROR, GET REPLY   CALL FS = 5
         B     DISP3               CHECK NEW REPLY
PITOK1   PACK  DBLW(8),REPLY(1)    GET IT
         CVB   R1,DBLW             CONVERT TO REG
         LTR   R1,R1               HOWS IT LOOK?
         BNP   NONO                ICKY
         CH    R1,=H'6'            MUST BE WITHIN 1-6 RANGE
         BH    NONO                ICKY
         LA    R15,7               GET A CONSTANT
         SR    R15,R1              GET INVERSE OF HIS NUM SYSTEM
         STC   R15,VCP             SET UP FOR THE DRIBBLE
         XR    R1,R1               DO THE MAIN BOARD
         MVI   VPL,C'B'            ITS HIS TURN
         BAS   R14,DRIBBLE         MAKE HIS MOVE
         B     NONO                +0 - EMPTY PIT
         SPACE 1
*------- DO VERIFICATION OF USER'S MOVE, HANDLE EXTRA MOVES
         SPACE 1
         TM    FLAGS,VERIFY        +4 - VERIFY HIS MOVES FOR HIM?
         BZ    NOVER               NOPE
         CLC   VCP(1),VERPIT       THIS WHAT I EXPECTED?
         BE    NOVER               YES, GO ON
         CLI   VERPIT,0            FIRST MOVE?
         BE    NOVER
         MVC   MSWRK(12),=C'I GUESSED XX'
         IC    R15,VERPIT          GET WHAT I THOT
         LA    R14,7               GET A CONSTANT
         SR    R14,R15             CONVERT NUMBER SYSTEMS
         CVD   R14,DBLW            CONVERT NUMBER
         UNPK  MSWRK+10(2),DBLW(8) MOVE TO LINE
         OI    MSWRK+11,X'F0'      FIX THE SIGN
         LA    R1,MSWRK
         LA    R0,12               LENGTH
         MVC   SVRDP(L'SVRDP),LIST0+2*4 SAVE REPLY ADDRESS/LENGTH
         XC    LIST0+2*4(2*4),LIST0+2*4 NO READ
        #DSP   DSPLAY,6            SEND THE MESSAGE        CALL FS = 6
         MVC   LIST0+2*4(L'SVRDP),SVRDP RESTORE REPLY ADDRESS/LENGTH
NOVER    CLI   VPL,C'B'            STILL HIM?
         MVI   VERPIT,0            I HAVE NO EXPECTATIONS
         BNE   MEFIRST             IF NOT HIM, MY TURN
         MVC   SCREEN+480(80),BLANKS ELSE, SET UP TO ASK FOR NOTHER
         MVC   SCREEN+480(L'BAGAIN),BAGAIN
         LA    R1,SCREEN+480+L'BAGAIN
         B     DISP1               LET HIM GO AGAIN
         SPACE 1
*------- MY TURN, SEE IF I HAVE NO CHOICES
*        MY TURN, SHOW BOARD FIRST
         SPACE 1
MEFIRST  MVC   SCREEN+480(80),BLANKS
         MVC   SCREEN+480(L'MYMOVE),MYMOVE
         LA    R1,SCREEN+480+L'MYMOVE
MEFIRST1 OC    VA1(6),VA1          CAN I MOVE AT ALL?
         BZ    ENDGAME             NO, STOP THEN
         L     R0,=A(MSGD)         HERE ARE WISECRACKS
         BAS   R14,WISECRAK        DO IT
         LA    R0,SCREEN           START OF DISPLAY
         SR    R1,R0               LENGTH
         LR    R0,R1
         XR    R1,R1               DO MAIN BOARD
         MVC   SVRDP(L'SVRDP),LIST0+2*4 SAVE REPLY ADDRESS/LENGTH
         XC    LIST0+2*4(2*4),LIST0+2*4 NO READ
        #DSP   DBOARD,7            SHOW BOARD, GO ON...    CALL FS = 7
         MVC   LIST0+2*4(L'SVRDP),SVRDP RESTORE REPLY ADDRESS/LENGTH
         SPACE 1
*------- SEE IF I HAVE A CHOICE IN MOVES
         SPACE 1
         XR    R1,R1               POINT TO MY FIRST PIT
         STC   R1,VERPIT           NO PIT FOR VERIFY YET
         XR    R15,R15             CLEAR SEARCH REG
         LA    R0,6                NUMBER OF PITS
         BCTR  R15,0               ITS EMPTY
SEARCH   LA    R14,VARR(R1)        FIND THIS PIT
         CLI   0(R14),0            EMPTY?
         BE    SEARON              YES, CONTINUE
         LTR   R15,R15             TEST FOR PREVIOUS HIT
         BNZ   CHOSE               MORE THAN ONE
         LR    R15,R1              ELSE, SAVE ITS INDEX
SEARON   LA    R1,1(R1)            NEXT ONE
         BCT   R0,SEARCH           CONTINUE SEARCHING
         LA    R15,1(R15)          NOT AN OFFSET
         STC   R15,VOP             SAVE THE ONE I FOUND
         B     CHOSEN              GO USE IT
*------- OPTIMIZE MY MOVE
*        INITIALIZE THE ROOT VERTEX BLOCK
*              R5 = LAST NODE INDEX VALUE
*              R6 = NEXT NODE INDEX VALUE (R5+1)
         SPACE 1
CHOSE    XR    R5,R5               LAST PTR IS ROOT
         LH    R6,VBLEN            NEXT IS FIRST
         MVI   VLV,0               LEVEL IS 0
         MVI   VOP,0               NO OPTIMUM PIT YET
         MVC   VOS(2),NONE         NO OPTIMUM SCORE
         MVI   VPL,C'A'            MAKE SURE OF THE PLAYER
         MVI   VCP,1               START WITH FIRST PIT
         SPACE 1
*------- GO UP TO NEXT NODE IN THE GAME TREE
         SPACE 1
NEXTUP   XR    R1,R1               CLEAR FOR AN IC
         IC    R1,VLV(R5)          GET LAST LEVEL
         LA    R1,1(R1)            NEXT LEVEL
         STC   R1,VLV(R6)          SAVE FOR NEXT ONE
         CH    R1,MAXLV            TOO FAR?
         BH    BACKDOWN            YES, BACKDOWN THE TREE
         IC    R1,VCP(R5)          GET CHOSEN PIT
         STC   R1,VCP(R6)          COPY TO NEW NODE
         IC    R1,VPL(R5)          MERGE UP PLAYER...
         STC   R1,VPL(R6)          TEMPORARILY
         LA    R14,VARR(R5)        GET LAST ARRAY
         LA    R15,VARR(R6)        AND NEXT
         MVC   0(14,R15),0(R14)    COPY BOARD UP
         LR    R1,R6               DO IT TO NEXT
         BAS   R14,DRIBBLE         MAKE LAST NODE'S MOVE TO NEXT
         B     ABORT               +0 - INVALID TRY, BACK OFF
         XR    R1,R1               +4 - GET A ZERO
         STC   R1,VCP(R6)          NO CURRENT PIT YET
         STC   R1,VOP(R6)          NO OPTIMUM PIT
         LA    R1,VOS(R6)          FIND OPTIMUM SCORE
         MVC   0(2,R1),NONE
         LA    R14,VA1(R6)         FIND THE ONE I JUST DID
         OC    0(6,R14),0(R14)     END OF GAME SITUATION?
         BNZ   TRYONE              NO, CONTINUE
         LA    R15,VCP(R6)         FIND CURRENT PTR
         MVI   0(R15),6            TRIED LAST PIT ALREADY
         AH    R6,VBLEN            NEXT NEXT
         AH    R5,VBLEN            NEXT LAST
         B     BACKDOWN            PRETEND EXCEEDED MAXLV
         SPACE 1
*------- TRY OUT A MOVE AND GO UP TREE
         SPACE 1
TRYONE   XR    R1,R1               CLEAR A REG
         IC    R1,VCP(R6)          GET LAST PIT NUMBER TRIED
         LA    R1,1(R1)            NEXT PIT
         STC   R1,VCP(R6)          SET IT UP
         CH    R1,=H'7'            TOO MUCH?
         BNL   DOWN                YES, ALL HAVE BEEN TRIED
         AH    R6,VBLEN            NEXT N
         AH    R5,VBLEN            AND L
         B     NEXTUP              GO UP ANOTHER NODE
         SPACE 1
*------- IF END OF BRANCH REACHED, START BACK DOWN
         SPACE 1
BACKDOWN XR    R1,R1               CLEAR FOR IC
         XR    R14,R14             CLEAR FOR ANOTHER ONE
         IC    R1,VAK(R5)          GET A KALAH VALUE
         IC    R14,VBK(R5)         AND B KALAH VALUE
         SR    R1,R14              GET SCORE
         STH   R1,VOS(R6)          UNTRIED NODE WORTH 0
         LA    R1,VPL(R5)          FIND THE PLAYER
         CLI   0(R1),C'A'          ME?
         BE    SCOREA              YES
         LH    R1,VOS(R6)          GET THE NEW SCORE
         SH    R1,=H'1'            HIS TURN, I LOSE A 1/2 POINT
         STH   R1,VOS(R6)          SAVE IT
         B     DOWN                CONTINUE DOWN TREE
SCOREA   LH    R1,VOS(R6)
         AH    R1,=H'1'            MY TURN, I GET A 1/2 POINT
         STH   R1,VOS(R6)          SAVE IT
         SPACE 1
*------- WHEN ALL POSIBILITIES HAVE BEEN TRIED, MERGE BACK BEST SCORE
         SPACE 1
DOWN     LTR   R6,R6               AT END?
         BZ    CHOSEN              YES, EXIT
         TM    FLAGS,TESTING       TESTING?
         BZ    NOTEST              NO
         LA    R15,VLV(R5)         FIND MERGED TO LEVEL
         CLC   0(1,R15),TRACE      DO THIS?
         BH    NOTEST              NO
         LH    R15,VOS(R6)         GET SCORE
         CVD   R15,DBLW            CONVERT IT
         MVC   MSWRK(8),=C'LN PN+VV' MOVE IN MASK
         UNPK  MSWRK+6(2),DBLW(8)  MOVE SCORE TO SCREEN
         OI    MSWRK+7,X'F0'       FIX THE SIGN
         IC    R1,VPL(R5)          GET PLAYER CODE
         LTR   R15,R15             NEGATIVE?
         BNM   *+L'*+4             NO
         MVI   MSWRK+5,C'-'        SHOW MINUS
         STC   R1,MSWRK+3          PUT IN LINE
         IC    R1,VCP(R5)          GET PIT CHOICE
         CLI   MSWRK+3,C'A'        MY MOVE?
         BE    TESTA               YES
         LR    R0,R1               SAVE IT
         LA    R1,7                GET COMPLEMENT
         SR    R1,R0               THIS WAY
TESTA    STC   R1,MSWRK+4          PUT IN LINE
         OI    MSWRK+4,X'F0'       FIX SIGN
         IC    R1,VLV(R5)          GET LEVEL NUMBER
         STC   R1,MSWRK+1          PUT IN LEVEL
         OI    MSWRK+1,X'F0'       FIX SIGN
         LA    R1,MSWRK            FIND TEXT
         LA    R0,8                LENGTH
         MVC   SVRDP(L'SVRDP),LIST0+2*4 SAVE REPLY ADDRESS/LENGTH
         XC    LIST0+2*4(2*4),LIST0+2*4 NO READ
        #DSP   DSPLAY,8            SEND THE MESSAGE        CALL FS = 8
         MVC   LIST0+2*4(L'SVRDP),SVRDP RESTORE REPLY ADDRESS/LENGTH
NOTEST   LA    R1,VOS(R5)          FIND PREVIOUS BEST SCORE
         LH    R15,VOS(R6)         PICK UP NEW ONE FOR MERGE
         CLC   0(2,R1),NONE        NO PREVIOUS?
         BE    MERGE               NONE, MERGE THEN
         LA    R1,VPL(R5)          WHOSE MOVE?
         CLI   0(R1),C'A'          MINE?
         LH    R14,VOS(R5)         GET VALUE FOR COMPARISON
         BE    *+L'*+6             IF ITS ME, DIFFERENT CRITERIA
         CR    R15,R14             VOS(N) > VOS(L)?
         B     *+L'*+2             CONTINUE
         CR    R14,R15             VOS(L) > VOS(N)?
         BH    ABORT               NOPE
MERGE    STH   R15,VOS(R5)         NEW SCORE
         IC    R1,VCP(R5)          LAST SELECTED PIT
         STC   R1,VOP(R5)          PRODUCED THIS SCORE
         TM    FLAGS,TESTING       TESTING?
         BZ    NOTEST1
         LA    R15,VLV(R5)         TEST THIS LEVEL
         CLC   0(1,R15),TRACE
         BH    NOTEST1             NOPE
         LA    R1,=CL6'PICKED'     INDICATE MERGE DONE
         LA    R0,6                LENGTH
         MVC   SVRDP(L'SVRDP),LIST0+2*4 SAVE REPLY ADDRESS/LENGTH
         XC    LIST0+2*4(2*4),LIST0+2*4 NO READ
        #DSP   DSPLAY,8            SEND THE MESSAGE        CALL FS = 8
         MVC   LIST0+2*4(L'SVRDP),SVRDP RESTORE REPLY ADDRESS/LENGTH
NOTEST1  LTR   R5,R5               MERGING TO END ONE?
         BNZ   ABORT               NO
         IC    R1,VOP(R6)          GET B'S BEST MOVE FOR THIS CASE
         STC   R1,VERPIT           AND SAVE IT
         SPACE 1
*------- BACK DOWN ONE NODE AND TRY AGAIN
         SPACE 1
ABORT    SH    R5,VBLEN            BACK DOWN LAST VERTEX
         SH    R6,VBLEN            AND NEXT
         BNM   TRYONE              IF NOT BACK TO START...
         SPACE 1
*------- MAKE MY MOVE
*        I'VE GOT A MOVE, MOVE IT THEN
         SPACE 1
CHOSEN   TM    FLAGS,TESTING+SCTERM TESTING ON SCREEN?
         BNO   SKIPTR
         TM    SWFSW,SWTRC
         BZ    SKIPTR
        #DSP   DSPLAY,9            LAST MESSAGE(S)         CALL FS = 9
SKIPTR   MVC   VCP(1),VOP          USE OPTIMUM PIT
         MVC   MSWRK(L'IMOVED),IMOVED GET TEXT
         XR    R1,R1               CLEAR FOR IC
         IC    R1,VCP              GET MY PIT NUMBER
         CVD   R1,DBLW             CONVERT IT
         UNPK  MSWRK+14(2),DBLW(8) MOVE CHOICE TO SCREEN
         OI    MSWRK+15,X'F0'      FIX THE SIGN
         LA    R0,L'IMOVED
         LA    R1,MSWRK            HERE IS MESSAGE
         MVC   SVRDP(L'SVRDP),LIST0+2*4 SAVE REPLY ADDRESS/LENGTH
         XC    LIST0+2*4(2*4),LIST0+2*4 NO READ
        #DSP   DSPLAY,6            SEND THE MESSAGE        CALL FS = 6
         MVC   LIST0+2*4(L'SVRDP),SVRDP RESTORE REPLY ADDRESS/LENGTH
         XR    R1,R1               DISPLAY MAJOR BOARD
         BAS   R14,DRIBBLE         MAKE MY MOVE
         EX    0,*                 +0 - THIS CAN'T HAPPEN (I HOPE)
         CLI   VPL,C'A'            +4 - ME AGAIN?
         BNE   DISP                NO, GO ON
         MVC   SCREEN+480(80),BLANKS
         MVC   SCREEN+480(L'AAGAIN),AAGAIN YES, I GET ANOTHER TURN
         LA    R1,SCREEN+480+L'AAGAIN
         B     MEFIRST1            GO DISPLAY AND ASK HIM
         SPACE 1
*------- GIVE END OF GAME STATISTICS
*        WHEN ENTIRE BOARD IS CLEAR, SHOW FINAL SCORE
         SPACE 1
ENDGAME  LA    R0,SCREEN
         LA    R14,GAMEMSG
         LA    R1,LGAMEMSG
         LR    R15,R1
         MVCL  R0,R14
         CLC   VAK(1),VBK          HOW'D HE/I DO?
         BE    ENDGAME1            NECK AND NECK
         MVI   SCREEN+89,C','       I WILL TALK
         LA    R1,SCREEN+91        WHERE GOES THE MESSAGE
         L     R0,=A(MSGE)         ASSUME I WON
         MVI   VPL,C'B'            HE GOES FIRST IF SO
         BH    IWIN                I DID
         MVI   VPL,C'A'            I GO FIRST IF HE WON
         L     R0,=A(MSGC)         HE WON
         MVC   0(13,R1),=C'GIVE THAT MAN'
         LA    R1,14(R1)           NEXT LOCATION
IWIN     BAS   R14,WISECRAK        MAKE A DIRTY CRACK
ENDGAME1 XR    R14,R14             CLEAR FOR IC
         XR    R15,R15             SAME HERE
         IC    R14,VAK             GET MY SCORE
         IC    R15,VBK             AND HIS
         CVD   R14,DBLW            CONVERT MINE
         MVC   SCREEN+326(3),=X'202120' EDIT MASK
         ED    SCREEN+325(4),DBLW+6 GET IT
         CVD   R15,DBLW            CONVERT HIS
         MVC   SCREEN+332(3),=X'202120' MOVE IN EDIT MASK
         ED    SCREEN+331(4),DBLW+6 CONVERT TO SCREEN
         AH    R14,AMATCH          MY MATCH SCORE
         AH    R15,BMATCH          HIS MATCH SCORE
         STH   R14,AMATCH          UPDATE THEM
         STH   R15,BMATCH          BOTH
         CVD   R14,DBLW            CONVERT MINE
         MVC   SCREEN+406(3),=X'202120' MOVE EDMSK TO SCREEN
         ED    SCREEN+405(4),DBLW+6 EDIT IT INTO LINE
         CVD   R15,DBLW            CONVERT HIS
         MVC   SCREEN+412(3),=X'202120' GET EDIT MASK
         ED    SCREEN+411(4),DBLW+6 CONVERT NUMBER
         CR    R14,R15             HOWS HE DOING?
         LA    R1,SCREEN+LGAMEMSG  ASSUME NECK AND NECK
         BE    EGAME               THEY ARE EQUAL
         MVC   0(2,R1),=C', '      OH BOY, I GET TO CRACK
         LA    R1,2(R1)            JUMP TO SPOT
         L     R0,=A(MSGA)         ASSUME I'M WINNING
         BH    *+L'*+4             I AM
         L     R0,=A(MSGB)         I'M NOT
         BAS   R14,WISECRAK        GET A CRACK
EGAME    MVI   0(R1),C'?'          END THE SENTENCE
         LA    R1,1(R1)            COUNT IT
         LA    R0,SCREEN           BEGINNING OF DISPLAY
         SR    R1,R0               GET LENGTH
         LR    R0,R1               GET IN RIGHT REG
         LA    R1,SCREEN           WHERE IS MESSAGE?
REEG    #DSP   DSPLAY,10           ASK FOR NEXT ONE        CALL FS = 10
         CLI   REPLY,C'Y'          NEW GAME?
         BE    NEWGAME             YES,  GO TO IT
         CLI   REPLY,C'N'          NO?
         BE    LEAVE               THEN LEAVE
         L     R0,LIST0+4          GET WRITE LENGTH
         CL    R0,=A(7*80)         JUST LAST LINE DONE?
         BNH   *+L'*+4             YES
         S     R0,=A(7*80)         NO, JUST LAST LINE
         LA    R1,SCREEN           FIND IT
         A     R1,=A(7*80)
         B     REEG                ASK AGAIN
LEAVE    TM    FLAGS,SCTERM        FULL SCREEN?