SMPG     TITLE '--- IBM 3270 DISPLAY - SLOT MACHINE POKER GAME ---'
         PRINT  OFF
         MACRO
&NAME   #CALL  &WHERE
         AIF   ('&WHERE' NE '').W1
         MNOTE 8,'--- "WHERE" OPERAND MISSING ---'
         MEXIT
.W1      AIF   ('&WHERE'(1,1) EQ '(').W2
&NAME    L     R15,=A(&WHERE)      GET ENTRY POINT
         AGO   .W3
.W2      AIF   ('&WHERE' EQ '(15)').W4
         AIF   ('&WHERE' EQ '(R15)').W4
&NAME    LR    R15,&WHERE          SET ENTRY POINT
.W3      BASR  R14,R15             GO TO ROUTINE
         MEXIT
.W4      ANOP
&NAME    BASR  R14,R15             GO TO ROUTINE
         MEND
         MACRO
&NAME   #CKBF  &N
&NAME    LA    R0,&N.(R4)
         CLR   R0,R5
         BL    *+L'*+4
         BAS   R14,BFSHT
         MEND
         MACRO
&LAB    #GTB   &N,&C=YES,&T=YES
         AIF   ('&N' NE '').N1
         MNOTE 8,'--- "NAME" OPERAND MISSING ---'
         MEXIT
.N1      ANOP
&LAB     DC    A(&N,&N.L)
         AIF   ('&C' EQ 'YES').C1
         AIF   ('&C' EQ 'NO').C2
         MNOTE 8,'--- C=&C INVALID SPECIFICATION ---'
         MEXIT
.C1      DC    A(&N.COL)
         AGO   .C3
.C2      DC    A(X'80000000')
.C3      AIF   ('&T' EQ 'YES').T1
         AIF   ('&T' EQ 'NO').T2
         MNOTE 8,'--- T=&T INVALID SPECIFICATION ---'
         MEXIT
.T1      DC    A(&N.TY1,&N.TY2)
         AGO   .T3
.T2      DC    A(X'80000000',X'80000000')
.T3      DC    A(&N.0,&N.1,&N.2,&N.3,&N.4)
         DC    A(&N.5,&N.6,&N.7,&N.8)
         MEND
         MACRO
&NAME   #XENT  &DUMMY
         CNOP  0,8
&NAME    STM   R14,R12,12(R13)     SAVE REGISTERS
         B     16(,R15)            BRANCH AROUND ID
         DC    CL8'&NAME'          IDENTIFIER
         LR    R8,R15              SET BASE REGISTER
         USING &NAME,R8            SET ADDRESSABILITY
         LR    R15,R13             PREVIOUS SAVE AREA
         LA    R13,18*4(R13)       NEW CURRENT SAVE AREA
         ST    R13,8(R15)          LINK SAVE AREAS
         ST    R15,4(R13)
         SPACE 1
         MEND
         MACRO
&NAME   #XRET  &DUMMY
&NAME    L     R13,4(R13)          PREVIOUS SAVE AREA
         XC    16(4,R13),16(R13)   SET RETURN CODE TO ZERO
         LM    R14,R12,12(R13)     RESTORE REGISTERS
         MVI   12(R13),X'FF'       SET RETURN INDICATOR
         BR    R14                 RETURN
         SPACE 1
         MEND
         MACRO
        #XEND  &DUMMY
        LTORG  ,                   LITERALS
         SPACE 1
         DROP  R8                  END OF LOCAL ADDRESSABILITY
         MEND
         PRINT  ON
         PRINT NOGEN
         SPACE 1
POKER    START 0
         SPACE 1
        $DEFREG
KBYTES   EQU   1024                1K BYTES
MWBFSZ   EQU   3*KBYTES            MAXIMUM WORK BUFFER SIZE IN BYTES
MABFSZ   EQU   2*KBYTES            MAXIMUM ALT. BUFFER SIZE IN BYTES
         SPACE 1
*        PAY COEFFICIENTS.
*              NOTE : THE MAXIMUM BET THE PROGRAM CAN ACCEPTED IS FIXED
*                     AT THE STATEMENTS WITH "<- - - - MAX.BET" IN THE
*                     LAST COLUMNS. THE MAXIMUM YOU CAN CODE IN THE
*                     PROGRAM IS 999 (OVER REQUIRES CODE MODIFICATION).
*                     CHANGE OF ANY VALUE BELOW WOULD BE ALSO REPORTED
*                     IN THE 'HELP' PANEL.
*              PF12 : TRACE/DEBUG PANEL (ALLOWED TO WIZARD ONLY).
         SPACE 1
WINOP    EQU   2                   ONE PAIR
WINTP    EQU   5                   TWO PAIR
WINTK    EQU   10                  THREE OF A KIND
WINST    EQU   15                  STRAIGHT
WINFS    EQU   20                  FLUSH
WINFH    EQU   25                  FULL HOUSE
WINFK    EQU   50                  FOUR OF A KIND (POKER)
WINSF    EQU   75                  STRAIGHT FLUSH
WINRF    EQU   100                 ROYAL FLUSH
         SPACE 1
* AUTHOR :     MOINIL P.A.
* --------     COMPUTING CENTRE
*              J.R.C. - ISPRA ESTABLISHMENT
*              21020 ISPRA (VA), ITALY
         EJECT
*- - - - - - - - - - - - - - - - - - - - - - - - - - - - - - - - - - -*
*        I N I T I A L I Z A T I O N                                  *
*- - - - - - - - - - - - - - - - - - - - - - - - - - - - - - - - - - -*
         SPACE 1
        $XENT  BASE=R12,LV=LDATA,TYPE=RENT
         LR    R11,R13
         USING WDATA,R11
         LA    R1,SBFFR
         ST    R1,MBFFR
         MVC   MBFFR+4(4),=A(MWBFSZ)
         AL    R1,=A(MWBFSZ)
         ST    R1,ABFFR
         MVC   ABFFR+4(4),=A(MABFSZ)
         ZAP   VLTOT,=PL1'+0'
         MVI   OPT,FSFULL
         MVI   SWSEL,SELST
         MVI   SWFUN,0
         MVI   SWERR,0
         MVC   EXTR(EXTRL),EXTRSK
        EXTRACT ATIOT,'S',FIELDS=(TIOT),MF=(E,EXTR)
         XR    R1,R1
         L     R2,ATIOT
         USING TIODSECT,R2
         CLC   TIOCNJOB,WIZARD
         BNE   SCSNAP
         OI    SWFUN,TRCAV
         XC    WBMAX(L'WBMAX+L'ABMAX),WBMAX
SCSNAP   CLC   TIOELNGH(4),=F'0'
         BE    SCNEND
         CLC   TIOEDDNM(L'TIOEDDNM),=CL8'SYSSNAP'
         BE    STSNAP
         IC    R1,TIOELNGH
         ALR   R2,R1
         B     SCSNAP
         DROP  R2
STSNAP   OI    OPT,FSSNAP
SCNEND  @FSI   ,
         LTR   R10,R15
         BNZ   XIMM
         OI    OPT,FSSKIP
         LM    R2,R3,INITRV
        @FS    OPT,(R2),(R3),MF=(E,FSPARM)
         LTR   R10,R15
         BNZ   XERR
         EJECT
*- - - - - - - - - - - - - - - - - - - - - - - - - - - - - - - - - - -*
*        M A I N     P R O C E S S                                    *
*- - - - - - - - - - - - - - - - - - - - - - - - - - - - - - - - - - -*
         SPACE 1
TSCRN    CLI   SWSEL,MXSEL
         BH    SERR
         XR    R1,R1
         IC    R1,SWSEL
         SLL   R1,2
         B     DOSEL(R1)
DOSEL    B     DO0
         B     DO1
         B     DO2
         B     DO3
MXSEL    EQU   ((*-DOSEL)/L'DOSEL)-1    MAX. VALUE
DO0     #CALL  DOP0
         B     SNDSC
DO1     #CALL  DOP1
         B     SNDSC
DO2     #CALL  DOP2
         LTR   R10,R10
         BNZ   TSCRN
         B     SNDSC
DO3     #CALL  DOP3
SNDSC    SL    R4,MBFFR
         ST    R4,MBMSGL
REPEAT   TM    SWFUN,PFKH
         BZ    NHLP
        #CALL  HLP0
         LTR   R10,R10
         BNZ   XERR
NHLP     TM    SWFUN,TRCAV+PFKT
         BNO   NTRC
        #CALL  TRC0
         LTR   R10,R10
         BNZ   XERR
NTRC     TM    SWFUN,TSREQ
         BZ    *+L'*+16
         CLC   MBMSGL,WBMAX
         BNH   *+L'*+6
         MVC   WBMAX,MBMSGL
         L     R5,MBFFR
         NI    OPT,255-FSSKIP
        @FS    OPT,(R5),MBMSGL,MF=(E,FSPARM)
         LTR   R10,R15
         BNZ   XERR
         NI    SWFUN,255-PFKE-PFKH-PFKT
         LTR   R1,R1
         BZ    SKPFT
         CLI   0(R1),X'F1'         PF-KEY 1 ?
         BNE   *+L'*+4
         OI    SWFUN,PFKH
         CLI   0(R1),X'C1'         PF-KEY 13 (ALT. 1) ?
         BNE   *+L'*+4
         OI    SWFUN,PFKH
         CLI   0(R1),X'F3'         PF-KEY 3 ?
         BNE   *+L'*+4
         OI    SWFUN,PFKE
         CLI   0(R1),X'C3'         PF-KEY 15 (ALT. 3) ?
         BNE   *+L'*+4
         OI    SWFUN,PFKE
         CLI   0(R1),X'7C'         PF-KEY 12 ?
         BNE   *+L'*+4
         OI    SWFUN,PFKT
         CLI   0(R1),X'4C'         PF-KEY 24 (ALT. 12) ?
         BNE   *+L'*+4
         OI    SWFUN,PFKT
SKPFT    MVI   RQCMD,C' '
         MVC   RQCMD+1(L'RQCMD-1),RQCMD
NXTRQ   @FSR   ,
         LTR   R15,R15
         BZ    ANAL
         LM    R2,R4,=A(TBRQL,TBRQE,TBRQ)
         CLC   0(3,R15),0(R4)
         BE    *+L'*+8
         BXLE  R4,R2,*-10
         B     NXTRQ
         ICM   R14,B'1111',3(R4)
         BR    R14
ARQGET   LTR   R1,R1
         BNP   NXTRQ
         LA    R2,L'RQCMD
         LA    R3,RQCMD
ARQLOOP  OC    0(1,R3),3(R15)
         BCT   R1,*+L'*+4
         B     NXTRQ
         LA    R15,1(R15)
         CLI   0(R3),C' '
         BE    ARQLOOP
         LA    R3,1(R3)
         BCT   R2,ARQLOOP
         B     NXTRQ
HRQGT1   LA    R2,HLDSTR
         B     HRQGST
HRQGT2   LA    R2,HLDSTR+1
         B     HRQGST
HRQGT3   LA    R2,HLDSTR+2
         B     HRQGST
HRQGT4   LA    R2,HLDSTR+3
         B     HRQGST
HRQGT5   LA    R2,HLDSTR+4
HRQGST   MVI   0(R2),C' '
         LTR   R1,R1
         BNP   NXTRQ
         OI    3(R15),C' '
         CLI   3(R15),C'H'
         BNE   NXTRQ
         MVI   0(R2),C'H'
         B     NXTRQ
ANAL     TM    SWFUN,PFKE
         BO    XEND
         TM    SWREQ,BETRQ
         BZ    ANALF
         CLI   RQCMD,C'0'
         BL    ANALF
         XR    R0,R0
         XR    R1,R1
         LA    R2,RQCMD
         LA    R3,L'RQCMD
         LA    R4,15
SCNUM    CLI   0(R2),C'0'
         BL    STVBT
         CLI   0(R2),C'9'
         BH    STVBT
         IC    R1,0(R2)
         NR    R1,R4
         LTR   R0,R0
         BNP   *+L'*+4
         MH    R0,=H'10'
         AR    R0,R1
         LA    R2,1(R2)
         BCT   R3,SCNUM
STVBT    ST    R0,VLBET
         B     TSBET
ANALF    LM    R2,R4,=A(TBCMDL,TBCMDE,TBCMD)
ANALN    XR    R1,R1
         LA    R15,RQCMD
         EX    R1,ANALC
         BE    *+L'*+8
         BXLE  R4,R2,*-8
         B     CHKBR
         LA    R0,L'TBCMD
         LR    R14,R15
ANALS    LA    R14,1(R14)
         CLI   0(R14),C' '
         BE    ANALG
         BCT   R0,*+L'*+4
         B     CHKBR
         LA    R1,1(R1)
         EX    R1,ANALC
         BE    ANALS
         BXLE  R4,R2,ANALN
         B     CHKBR
ANALG    ICM   R14,B'1111',L'TBCMD(R4)
         BR    R14
ANALC    CLC   0(*-*,R15),0(R4)
XHELP    OI    SWFUN,PFKH
         B     CHKBR
XTRC     OI    SWFUN,PFKT
         B     CHKBR
XTST     TM    SWFUN,TRCAV
         BZ    CHKBR
         OI    SWFUN,TSREQ
CHKBR    TM    SWREQ,BETRQ
         BZ    TSCRN
         L     R0,VLBET
TSBET    LTR   R0,R0
         BNP   REPEAT
         CH    R0,=H'10'           <- - - - - - - - - - - - - - MAX.BET
         BH    REPEAT
         NI    SWREQ,255-BETRQ
         B     TSCRN
         EJECT
*- - - - - - - - - - - - - - - - - - - - - - - - - - - - - - - - - - -*
*        T E R M I N A T I O N                                        *
*- - - - - - - - - - - - - - - - - - - - - - - - - - - - - - - - - - -*
         SPACE 1
XEND     XR    R10,R10
QUIT     MVI   OPT,FSEXIT
        @FS    OPT,MF=(E,FSPARM)
         LR    R9,R15
         LTR   R10,R10
         BZ    NMSG0
        TPUT   ERRMSG,L'ERRMS1
NMSG0    TM    SWERR,SHTBF
         BZ    NMSG1
        TPUT   ERRMS3,L'ERRMS3
         MVC   ERRMSG(L'ERRMS3A),ERRMS3A
         LA    R0,4
         LA    R1,ERRMSG+8
         LA    R14,SVRBFS
         UNPK  0(9,R1),0(5,R14)
         TR    0(8,R1),HEXTB-X'F0'
         MVI   8(R1),C' '
         LA    R1,12(R1)
         LA    R14,4(R14)
         BCT   R0,*-24
        TPUT   ERRMSG,L'ERRMS3A
         MVC   ERRMSG(L'ERRMS3B),ERRMS3B
         UNPK  ERRMSG+8(9),MBFFR(5)
         TR    ERRMSG+8(8),HEXTB-X'F0'
         MVI   ERRMSG+16,C' '
         UNPK  ERRMSG+20(9),ABFFR(5)
         TR    ERRMSG+20(8),HEXTB-X'F0'
         MVI   ERRMSG+28,C' '
         ST    R12,ATIOT
         UNPK  ERRMSG+34(9),ATIOT(5)
         TR    ERRMSG+34(8),HEXTB-X'F0'
         MVI   ERRMSG+42,C' '
        TPUT   ERRMSG,L'ERRMS3B
NMSG1    TM    SWERR,WHATF
         BZ    NMSG2
        TPUT   ERRMS4,L'ERRMS4
NMSG2    TM    SWERR,SERRF
         BZ    NMSG3
        TPUT   ERRMS5,L'ERRMS5
NMSG3    LTR   R9,R9
         BZ    LEAVE
         MVC   ERRMSG(L'ERRMS1),ERRMS1
         CVD   R9,WORK
         MVC   ERRMSG+30(4),=XL4'40202120'
         ED    ERRMSG+30(4),WORK+L'WORK-2
         XR    R0,R0
         IC    R0,OPT
         STC   R0,ERRMSG+22
         SRL   R0,4
         STC   R0,ERRMSG+21
         NC    ERRMSG+21(2),=XL2'0F0F'
         TR    ERRMSG+21(2),HEXTB
        TPUT   ERRMSG,L'ERRMS1
LEAVE    LR    R10,R15
         LA    R0,SVA              SAVE AREA PERCOLATION
         CLR   R0,R13
         BE    *+L'*+8
         L     R13,4(R13)
         B     *-10
         TM    SWFUN,TSREQ
         BZ    NXTRC
         MVC   ERRMSG(L'ERRMS6),ERRMS6
         UNPK  ERRMSG+12(9),WBMAX(5)
         TR    ERRMSG+12(8),HEXTB-X'F0'
         MVI   ERRMSG+20,C' '
         UNPK  ERRMSG+28(9),ABMAX(5)
         TR    ERRMSG+28(8),HEXTB-X'F0'
         MVI   ERRMSG+36,C' '
        TPUT   ERRMSG,L'ERRMS6
NXTRC   $XRET  CC=(R10),LV=LDATA,TYPE=RENT
XERR     MVC   ERRMSG(L'ERRMS1),ERRMS1
         CVD   R10,WORK
         MVC   ERRMSG+30(4),=XL4'40202120'
         ED    ERRMSG+30(4),WORK+L'WORK-2
         XR    R0,R0
         IC    R0,OPT
         STC   R0,ERRMSG+22
         SRL   R0,4
         STC   R0,ERRMSG+21
         NC    ERRMSG+21(2),=XL2'0F0F'
         TR    ERRMSG+21(2),HEXTB
         B     QUIT
XIMM     MVC   ERRMSG(L'ERRMS2),ERRMS2
         CVD   R10,WORK
         MVC   ERRMSG+20(4),=XL4'40202120'
         ED    ERRMSG+20(4),WORK+L'WORK-2
        TPUT   ERRMSG,L'ERRMS2
         B     LEAVE
BFSHT    OI    SWERR,SHTBF
         ST    R0,SVRBFS
         STM   R4,R5,SVRBFS+4
         ST    R14,SVRBFS+12
         B     XEND
WHAT     OI    SWERR,WHATF
         B     XEND
SERR     OI    SWERR,SERRF
         B     XEND
         EJECT
*- - - - - - - - - - - - - - - - - - - - - - - - - - - - - - - - - - -*
*        G E N E R A L     R O U T I N E S                            *
*- - - - - - - - - - - - - - - - - - - - - - - - - - - - - - - - - - -*
         SPACE 1
*        MOVE SCREEN ORDERS ROUTINE.
*              R0  = WORK REGISTER.
*              R1  = WORK REGISTER.
*              R2  = FROM ORDERS ADDRESS (AT ENTRY).
*              R3  = FROM ORDERS LENGTH (AT ENTRY).
*              R4  = CURRENT BUFFER ADDRESS POINTER / UPDATED.
*              R5  = MAXIMUM BUFFER ADDRESS VALUE FOR CHECK.
*              R14 = LINK REGISTER.
         SPACE 1
MVSCO    LR    R0,R4
         ALR   R4,R3
         CLR   R4,R5
         BNL   BFSHT
         LR    R1,R3
         MVCL  R0,R2
         BR    R14
         SPACE 1
*        GENERATE SET BUFFER ADDRESS ROUTINE.
*              AT ENTRY : "RCSBA" = AL1(ROW,COLUMN)
*              R0  = WORK REGISTER.
*              R1  = WORK REGISTER.
*              R3  = SBA POINTER.
*              R14 = LINK REGISTER.
*              R15 = WORK REGISTER.
         SPACE 1
GNSBA    XR    R0,R0
         LR    R1,R0
         IC    R0,RCSBA+1          COLUMN
         SH    R0,=H'1'
         IC    R1,RCSBA            ROW
         SH    R1,=H'1'
         BZ    *+L'*+4
         MH    R1,=H'80'
         AR    R1,R0
         LR    R15,R1
         XR    R0,R0
         CL    R1,TRSBAM
         BNL   *+L'*+6
         XR    R1,R1
         B     *+L'*+6
         D     R0,TRSBAM
         LR    R0,R1
         MH    R0,TRSBAM+2
         SR    R15,R0
         AL    R1,=A(TRSBA)
         AL    R15,=A(TRSBA)
         MVC   1(1,R3),0(R1)
         MVC   2(1,R3),0(R15)
         BR    R14
         SPACE 1
*        BUILD A CARD IMAGE ROUTINE.
*              AT ENTRY : "CARD" = 0-12
*                         "COLOR" = 0-3
*                         "RCSBA" = AL1(*-*,COLUMN)
*              R0  = WORK REGISTER.
*              R1  = WORK REGISTER.
*              R2  = WORK REGISTER.
*              R3  = WORK REGISTER.
*              R4  = CURRENT BUFFER ADDRESS POINTER / UPDATED.
*              R5  = MAXIMUM BUFFER ADDRESS VALUE FOR CHECK.
*              R6  = WORK REGISTER.
*              R7  = WORK REGISTER.
*              R9  = LINK REGISTER.
*              R14 = INTERNAL LINK REGISTER.
*              R15 = WORK REGISTER.
         SPACE 1
BLDCI    LR    R6,R4
         XR    R7,R7
         IC    R7,CARD
         LTR   R7,R7
         BNP   *+L'*+4
         MH    R7,=Y(TTNL)
         AL    R7,=A(TTN)
         LM    R2,R3,0(R7)
         BAS   R14,MVSCO
         TM    8(R7),X'80'
         BO    BLDCI1
         XR    R1,R1
         IC    R1,COLOR
         LTR   R1,R1
         BNP   *+L'*+4
         MH    R1,=Y(TCNL)
         AL    R1,=A(TCN)
         ICM   R2,B'1111',1(R1)
         LR    R3,R6
         AL    R3,8(R7)
         MVC   0(L'TCH,R3),0(R2)
BLDCI1   TM    12(R7),X'80'
         BO    BLDCI2
         LR    R2,R6
         AL    R2,12(R7)
         MVC   0(1,R2),0(R1)
BLDCI2   TM    16(R7),X'80'
         BO    BLDCI3
         LR    R2,R6
         AL    R2,16(R7)
         MVC   0(1,R2),0(R1)
BLDCI3   LA    R7,16(R7)
         MVI   RCSBA,6             FROM LINE 7 UP TO LINE 15 INCLUDED
         LA    R2,9
BLDCI4   LA    R7,4(R7)
         LR    R3,R6
         AL    R3,0(R7)
         XR    R1,R1
         IC    R1,RCSBA
         LA    R1,1(R1)
         STC   R1,RCSBA
         BAS   R14,GNSBA
         BCT   R2,BLDCI4
         BR    R9
         EJECT
*- - - - - - - - - - - - - - - - - - - - - - - - - - - - - - - - - - -*
*        L O C A L     C O N S T A N T S                              *
*- - - - - - - - - - - - - - - - - - - - - - - - - - - - - - - - - - -*
         SPACE 1
INITRV   DC    A(INITR,*+4,INITRL)
WIZARD   DC    CL8'SYSPAJA '
TRSBA    DC    XL16'40C1C2C3C4C5C6C7C8C94A4B4C4D4E4F'
         DC    XL16'50D1D2D3D4D5D6D7D8D95A5B5C5D5E5F'
         DC    XL16'6061E2E3E4E5E6E7E8E96A6B6C6D6E6F'
         DC    XL16'F0F1F2F3F4F5F6F7F8F97A7B7C7D7E7F'
TRSBAL   EQU   *-TRSBA
TRSBAM   DC    A(TRSBAL)
EXTRSK  EXTRACT *-*,'S',MF=L
EXTRL    EQU   *-EXTRSK
HEXTB    DC    CL16'0123456789ABCDEF'
         SPACE 1
ERRMS1   DC    C' --- "FSRTN" - OPT = .. , RC = ... -> EXIT ---'
ERRMS2   DC    C' --- "FSRTNI" - RC = ... -> EXIT ---'
ERRMS3   DC    C' --- BUFFER IS TOO SHORT -> EXIT ---'
ERRMS3A  DC    C'     R0=........ R4=........ R5=........ LK=........ '
ERRMS3B  DC    C'     WB=........ AB=........ M-BS=........ '
ERRMS4   DC    C' --- SELECTION FAILURE -> EXIT ---'
ERRMS5   DC    C' --- INVALID PROCESS -> EXIT ---'
ERRMS6   DC    C' --- WB-MAX=........ AB-MAX=........ '
         SPACE 1
        LTORG
         EJECT
DOP0    #XENT  ,
         LA    R2,TCRDS
         LA    R3,10
         CLI   SHMOD,1
         BNE   *+L'*+8
         L     R15,=A(SLTCD)       ALTERNATE SELECTION
         B     *+L'*+4
         L     R15,=A(SHUFFLE)     STANDARD SELECTION
         BASR  R14,R15
         MVC   CCRDS(5*L'CCRDS),=AL1(13,0,13,0,13,0,13,0,13,0)
         MVI   SWSEL,SELCD
         OI    SWREQ,BETRQ
         XC    VLBET,VLBET
         XC    VLWIN,VLWIN
         MVC   HLDSTR,=CL5' '
         MVC   HLDPRV,=CL5' '
         MVC   FLWIN,=CL5' '
         MVC   TCLR,=CL5' '
         MVC   TCDS,=CL5' '
         MVI   DCNT1,0
         MVI   DCNT2,0
         LM    R0,R1,MBFFR
         BASR  R14,0
         XR    R15,R15
         MVCL  R0,R14
         LM    R4,R5,MBFFR
         ALR   R5,R4
         LM    R2,R3,=A(STRTR,STRTRL)
         LR    R15,R4
         BAS   R14,MVSCO
         AL    R15,=A(STRTX)
         MVC   EDVAL,=XL20'402020204B2020204B2020204B2020204B202120'
         ED    EDVAL,VLTOT
         BM    DOP0SM
        $FS    SA=(COLOUR,GREEN),MF=(E,(R15))
         MVC   0(8,R15),=CL8'Credit $'
         B     DOP0MV
DOP0SM  $FS    SA=(COLOUR,RED),MF=(E,(R15))
         MVC   0(8,R15),=CL8' Debit $'
DOP0MV   MVC   8(20,R15),EDVAL
         MVC   CARD(L'CCRDS),CCRDS
         MVI   RCSBA+1,10
         BAS   R9,BLDCI
         MVC   CARD(L'CCRDS),CCRDS+L'CCRDS
         MVI   RCSBA+1,23
         BAS   R9,BLDCI
         MVC   CARD(L'CCRDS),CCRDS+2*L'CCRDS
         MVI   RCSBA+1,36
         BAS   R9,BLDCI
         MVC   CARD(L'CCRDS),CCRDS+3*L'CCRDS
         MVI   RCSBA+1,49
         BAS   R9,BLDCI
         MVC   CARD(L'CCRDS),CCRDS+4*L'CCRDS
         MVI   RCSBA+1,62
         BAS   R9,BLDCI
         LM    R2,R3,=A(LSTTR,LSTTRL)
         LR    R15,R4
         BAS   R14,MVSCO
         AL    R15,=A(LSTTX)
         MVC   0(20,R15),=CL20' Bet (1$-10$ max.) :'   <- - - - MAX.BET
         L     R1,4(R13)
         ST    R4,36(R1)           PASS BACK R4
        #XRET  ,
        #XEND  ,
         EJECT
*------- SHUFFLE (GENERATE) "N" CARDS DECK ... SUBROUTINE
*              (PSEUDO-RANDOM NUMBER GENERATOR)
*        AT ENTRY : R2 = ADDRESS OF A "N" HALFWORDS VECTOR
*                   R3 = VALUE OF "N"
*        AT EXIT : ALL VECTOR HALWORDS ARE FILLED WITH AL1(CARD,COLOR)
*                  WHERE : CARD = 0-12
*                          COLOR = 0-3
         SPACE 1
        CNOP   0,4
         USING *,R5
SHUFFLE  STM   R14,R5,12(R13)
         LR    R5,R15
         LTR   R3,R3
         BNP   SHUFFX
        TIME   MIC,SHUFFW,ZONE=LT  GET "ELAPSED" TIME (LOCAL TIME)
         L     R0,SHUFFW+4
         SRL   R0,9
         ST    R0,SHUFFW
         CL    R3,=F'52'
         BNH   *+L'*+4
         L     R3,=F'52'
         LR    R4,R2
SHUFF1   L     R1,=A(7*7*7*7*7)
         M     R0,SHUFFW
         D     R0,=A(X'7FFFFFFF')
         ST    R0,SHUFFW
         SRDL  R0,39
         D     R0,=F'52'
SHUFF2   SRDL  R0,2
         SLL   R0,6
         SLDL  R0,2
         LR    R1,R4
SHUFF3   CLR   R1,R2
         BE    SHUFF4
         CLM   R0,B'0011',0(R1)
         BE    *+L'*+8
         LA    R1,2(R1)
         B     SHUFF3
         SRDL  R0,2
         SRL   R0,6
         SLDL  R0,2
         A     R0,=F'17'
         C     R0,=F'52'
         BL    SHUFF2
         S     R0,=F'52'
         B     SHUFF2
SHUFF4   STCM  R0,B'0011',0(R2)
         LA    R2,2(R2)
         BCT   R3,SHUFF1
SHUFFX   LM    R14,R5,12(R13)
         BR    R14
         SPACE 1
SHUFFW   DC    D'0'
         SPACE 1
        LTORG
         SPACE 1
         DROP  R5
         EJECT
*------- SELECT (GENERATE) "N" CARDS DECK ... SUBROUTINE
*              (ALTERNATE PSEUDO-RANDOM NUMBER GENERATOR)
*        AT ENTRY : R2 = ADDRESS OF A "N" HALFWORDS VECTOR
*                   R3 = VALUE OF "N"
*        AT EXIT : ALL VECTOR HALWORDS ARE FILLED WITH AL1(CARD,COLOR)
*                  WHERE : CARD = 0-12
*                          COLOR = 0-3
         SPACE 1
        CNOP   0,4
         USING *,R5
SLTCD    STM   R14,R5,12(R13)
         LR    R5,R15
         LTR   R3,R3
         BNP   SLTCDX
         CL    R3,=F'52'
         BNH   *+L'*+4
         L     R3,=F'52'
         LR    R4,R2
SLTCD1  TIME   MIC,SLTCDW,ZONE=LT  GET "ELAPSED" TIME (LOCAL TIME)
         L     R1,SLTCDW+4
         SRL   R1,9
         LTR   R1,R1
         BNP   SLTCD1
         CL    R1,=F'13'
         BNH   SLTCD1
         XR    R0,R0
         D     R0,=F'13'
         SLL   R0,8
         N     R1,=A(X'00000003')
         OR    R0,R1
         LR    R1,R4
SLTCD2   CLR   R1,R2
         BE    SLTCD3
         CLM   R0,B'0011',0(R1)
         BE    SLTCD1
         LA    R1,2(R1)
         B     SLTCD2
SLTCD3   STCM  R0,B'0011',0(R2)
         LA    R2,2(R2)
         BCT   R3,SLTCD1
SLTCDX   LM    R14,R5,12(R13)
         BR    R14
         SPACE 1
SLTCDW   DC    D'0'
         SPACE 1
        LTORG
         SPACE 1
         DROP  R5
         EJECT
DOP1    #XENT  ,
         MVC   CCRDS(5*L'CCRDS),TCRDS
         MVI   SWSEL,SELHD
         MVC   HLDPRV,=CL5'HHHHH'
         LM    R0,R1,MBFFR
         BASR  R14,0
         XR    R15,R15
         MVCL  R0,R14
         LM    R4,R5,MBFFR
         ALR   R5,R4
         LM    R2,R3,=A(STRTR,STRTRL)
         LR    R15,R4
         BAS   R14,MVSCO
         AL    R15,=A(STRTX)
         MVC   EDVAL,=XL20'402020204B2020204B2020204B2020204B202120'
         ED    EDVAL,VLTOT
         BM    DOP1SM
        $FS    SA=(COLOUR,GREEN),MF=(E,(R15))
         MVC   0(8,R15),=CL8'Credit $'
         B     DOP1MV
DOP1SM  $FS    SA=(COLOUR,RED),MF=(E,(R15))
         MVC   0(8,R15),=CL8' Debit $'
DOP1MV   MVC   8(20,R15),EDVAL
         MVC   CARD(L'CCRDS),CCRDS
         MVI   RCSBA+1,10
         BAS   R9,BLDCI
         MVC   CARD(L'CCRDS),CCRDS+L'CCRDS
         MVI   RCSBA+1,23
         BAS   R9,BLDCI
         MVC   CARD(L'CCRDS),CCRDS+2*L'CCRDS
         MVI   RCSBA+1,36
         BAS   R9,BLDCI
         MVC   CARD(L'CCRDS),CCRDS+3*L'CCRDS
         MVI   RCSBA+1,49
         BAS   R9,BLDCI
         MVC   CARD(L'CCRDS),CCRDS+4*L'CCRDS
         MVI   RCSBA+1,62
         BAS   R9,BLDCI
        #CKBF  17
        $FS    SBA=(17,11),SF=(MDT),MF=(E,(R4))
        $FS    SA=(HILITE,BLINK),MF=(E,(R4))
        $FS    SA=(COLOUR,PINK),MF=(E,(R4))
        $FS    TEXT='HOLD',MF=(E,(R4))
        $FS    SF=(PROT,SKIP),MF=(E,(R4))
        #CKBF  11
        $FS    SBA=(17,24),SF=(MDT),MF=(E,(R4))
        $FS    TEXT='HOLD',MF=(E,(R4))
        $FS    SF=(PROT,SKIP),MF=(E,(R4))
        #CKBF  11
        $FS    SBA=(17,37),SF=(MDT),MF=(E,(R4))
        $FS    TEXT='HOLD',MF=(E,(R4))
        $FS    SF=(PROT,SKIP),MF=(E,(R4))
        #CKBF  11
        $FS    SBA=(17,50),SF=(MDT),MF=(E,(R4))
        $FS    TEXT='HOLD',MF=(E,(R4))
        $FS    SF=(PROT,SKIP),MF=(E,(R4))
        #CKBF  11
        $FS    SBA=(17,63),SF=(MDT),MF=(E,(R4))
        $FS    TEXT='HOLD',MF=(E,(R4))
        $FS    SF=(PROT,SKIP),MF=(E,(R4))
         LM    R2,R3,=A(LSTTR,LSTTIL)
         LR    R15,R4
         BAS   R14,MVSCO
         AL    R15,=A(LSTTX)
         MVC   0(20,R15),=CL20'Select your HOLD''s :'
        #CKBF  11
        $FS    SBA=(22,1),SF=(PROT,SKIP),MF=(E,(R4))
        $FS    SA=(HILITE,DEFAULT),MF=(E,(R4))
        $FS    SA=(COLOUR,PINK),MF=(E,(R4))
        #CKBF  29
        $FS    TEXT='You are playing for a bet of ',MF=(E,(R4))
        #CKBF  13
        $FS    SA=(COLOUR,TURQ),MF=(E,(R4))
         MVC   0(8,R4),=XL8'5B40202120404F40'
         L     R0,VLBET
         CVD   R0,WORK
         ED    1(4,R4),WORK+L'WORK-2
         CLI   2(R4),C' '
         BNE   *+L'*+10
         MVC   2(5,R4),3(R4)
         B     *-14
         LA    R4,1(R4)
         CLI   0(R4),C'|'
         BNE   *-8
         LA    R4,2(R4)
        $FS    SF=(PROT,SKIP),MF=(E,(R4))
         LM    R2,R3,=A(LSTTI,LSTTRL-LSTTIL)
         BAS   R14,MVSCO
         L     R1,4(R13)
         ST    R4,36(R1)           PASS BACK R4
        #XRET  ,
        #XEND  ,
         EJECT
DOP2    #XENT  ,
         CLC   HLDPRV,HLDSTR
         BNE   *+L'*+12
         MVI   SWSEL,SELNX
         LA    R10,4
         B     DOP2X
         MVI   SWSEL,SELHD
         MVC   HLDPRV,HLDSTR
         LM    R0,R1,MBFFR
         BASR  R14,0
         XR    R15,R15
         MVCL  R0,R14
         LM    R4,R5,MBFFR
         ALR   R5,R4
         LM    R2,R3,=A(STRTR,STRTRL)
         LR    R15,R4
         BAS   R14,MVSCO
         AL    R15,=A(STRTX)
         MVC   EDVAL,=XL20'402020204B2020204B2020204B2020204B202120'
         ED    EDVAL,VLTOT
         BM    DOP2SM
        $FS    SA=(COLOUR,GREEN),MF=(E,(R15))
         MVC   0(8,R15),=CL8'Credit $'
         B     DOP2MV
DOP2SM  $FS    SA=(COLOUR,RED),MF=(E,(R15))
         MVC   0(8,R15),=CL8' Debit $'
DOP2MV   MVC   8(20,R15),EDVAL
         CLI   HLDSTR,C' '
         BE    *+L'*+10
         MVC   CARD(L'CCRDS),CCRDS
         B     *+L'*+6
         MVC   CARD(L'CCRDS),=AL1(13,0)
         MVI   RCSBA+1,10
         BAS   R9,BLDCI
         CLI   HLDSTR+1,C' '
         BE    *+L'*+10
         MVC   CARD(L'CCRDS),CCRDS+L'CCRDS
         B     *+L'*+6
         MVC   CARD(L'CCRDS),=AL1(13,0)
         MVI   RCSBA+1,23
         BAS   R9,BLDCI
         CLI   HLDSTR+2,C' '
         BE    *+L'*+10
         MVC   CARD(L'CCRDS),CCRDS+2*L'CCRDS
         B     *+L'*+6
         MVC   CARD(L'CCRDS),=AL1(13,0)
         MVI   RCSBA+1,36
         BAS   R9,BLDCI
         CLI   HLDSTR+3,C' '
         BE    *+L'*+10
         MVC   CARD(L'CCRDS),CCRDS+3*L'CCRDS
         B     *+L'*+6
         MVC   CARD(L'CCRDS),=AL1(13,0)
         MVI   RCSBA+1,49
         BAS   R9,BLDCI
         CLI   HLDSTR+4,C' '
         BE    *+L'*+10
         MVC   CARD(L'CCRDS),CCRDS+4*L'CCRDS
         B     *+L'*+6
         MVC   CARD(L'CCRDS),=AL1(13,0)
         MVI   RCSBA+1,62
         BAS   R9,BLDCI
        #CKBF  17
        $FS    SBA=(17,11),SF=(MDT),MF=(E,(R4))
        $FS    SA=(HILITE,DEFAULT),MF=(E,(R4))
        $FS    SA=(COLOUR,WHITE),MF=(E,(R4))
         CLI   HLDSTR,C' '
         BE    DOP2A
        $FS    TEXT='HELD',MF=(E,(R4))
         B     DOP2B
DOP2A   $FS    TEXT='    ',MF=(E,(R4))
DOP2B   $FS    SF=(PROT,SKIP),MF=(E,(R4))
        #CKBF  11
        $FS    SBA=(17,24),SF=(MDT),MF=(E,(R4))
         CLI   HLDSTR+1,C' '
         BE    DOP2C
        $FS    TEXT='HELD',MF=(E,(R4))
         B     DOP2D
DOP2C   $FS    TEXT='    ',MF=(E,(R4))
DOP2D   $FS    SF=(PROT,SKIP),MF=(E,(R4))
        #CKBF  11
        $FS    SBA=(17,37),SF=(MDT),MF=(E,(R4))
         CLI   HLDSTR+2,C' '
         BE    DOP2E
        $FS    TEXT='HELD',MF=(E,(R4))
         B     DOP2F
DOP2E   $FS    TEXT='    ',MF=(E,(R4))
DOP2F   $FS    SF=(PROT,SKIP),MF=(E,(R4))
        #CKBF  11
        $FS    SBA=(17,50),SF=(MDT),MF=(E,(R4))
         CLI   HLDSTR+3,C' '
         BE    DOP2G
        $FS    TEXT='HELD',MF=(E,(R4))
         B     DOP2H
DOP2G   $FS    TEXT='    ',MF=(E,(R4))
DOP2H   $FS    SF=(PROT,SKIP),MF=(E,(R4))
        #CKBF  11
        $FS    SBA=(17,63),SF=(MDT),MF=(E,(R4))
         CLI   HLDSTR+4,C' '
         BE    DOP2I
        $FS    TEXT='HELD',MF=(E,(R4))
         B     DOP2J
DOP2I   $FS    TEXT='    ',MF=(E,(R4))
DOP2J   $FS    SF=(PROT,SKIP),MF=(E,(R4))
         LM    R2,R3,=A(LSTTR,LSTTIL)
         LR    R15,R4
         BAS   R14,MVSCO
         AL    R15,=A(LSTTX)
         MVC   0(20,R15),=CL20'Let''s go or change :'
        #CKBF  11
        $FS    SBA=(22,1),SF=(PROT,SKIP),MF=(E,(R4))
        $FS    SA=(HILITE,DEFAULT),MF=(E,(R4))
        $FS    SA=(COLOUR,PINK),MF=(E,(R4))
        #CKBF  29
        $FS    TEXT='You are playing for a bet of ',MF=(E,(R4))
        #CKBF  13
        $FS    SA=(COLOUR,TURQ),MF=(E,(R4))
         MVC   0(8,R4),=XL8'5B40202120404F40'
         L     R0,VLBET
         CVD   R0,WORK
         ED    1(4,R4),WORK+L'WORK-2
         CLI   2(R4),C' '
         BNE   *+L'*+10
         MVC   2(5,R4),3(R4)
         B     *-14
         LA    R4,1(R4)
         CLI   0(R4),C'|'
         BNE   *-8
         LA    R4,2(R4)
        $FS    SF=(PROT,SKIP),MF=(E,(R4))
         LM    R2,R3,=A(LSTTI,LSTTRL-LSTTIL)
         BAS   R14,MVSCO
         XR    R10,R10
DOP2X    L     R1,4(R13)
         ST    R4,36(R1)           PASS BACK R4
         ST    R10,60(R1)          PASS BACK R10
        #XRET  ,
        #XEND  ,
         EJECT
DOP3    #XENT  ,
         MVI   SWSEL,SELST
         LA    R5,1
         LA    R0,L'HLDSTR
         LA    R1,HLDSTR
         LA    R2,TCDS
         LA    R3,TCLR