         MACRO
&NAME    #CSTR    &STR
         GBLA     &$CSL
         LCLC     &C
         LCLC     &S
         LCLA     &I
.*
.*
.*
&$CSL    SETA     &$CSL+1
.*
.*
.*
.*
.*
.*
$CSS&$CSL DS       0C
&I       SETA     2
.BLOOP   ANOP
.*       MNOTE    0,'I = &I'
         AIF      (&I GE K'&STR).ELOOP
&C       SETC     '&STR'(&I,1)
         AIF      ('&C' EQ '\' AND &I+1 LE K'&STR).ESC
.L2      ANOP
&S       SETC     '&S&C'
         AIF      (K'&S LT 40).CLOOP
         DC       C'&S'
&S       SETC     ''
.*
.*
.*
.CLOOP   ANOP
&I       SETA     &I+1
         AGO      .BLOOP
.ESC     ANOP
         AIF      (K'&S EQ 0).E1
         DC       C'&S'
.E1      ANOP
&S       SETC     ''
&I       SETA     &I+1
         AIF      (&I GT K'&STR).L2
&C       SETC     '&STR'(&I,1)
         AIF      ('&C' EQ 'a').BELL
         AIF      ('&C' EQ 'b').BS
         AIF      ('&C' EQ 'f').FF
         AIF      ('&C' EQ 'n').NL
         AIF      ('&C' EQ 'r').CR
         AIF      ('&C' EQ 't').HT
         AIF      ('&C' EQ 'v').VT
         AIF      ('&C' EQ '''').L2
         AIF      ('&C' EQ '"').L2
         AIF      ('&C' EQ '?').L2
         AIF      ('&C' EQ '\').L2
         AIF      ('&C' EQ 'x').HEX
         MNOTE    8,'Invalid escape sequence: %C'
         MEXIT
.BELL    ANOP
         DC       X'05'
         AGO      .CLOOP
.BS      ANOP
         DC       X'16'
         AGO      .CLOOP
.FF      ANOP
         DC       X'0C'
         AGO      .CLOOP
.NL      ANOP
         DC       X'15'
         AGO      .CLOOP
.CR      ANOP
         DC       X'0D'
         AGO      .CLOOP
.HT      ANOP
         DC       X'05'
         AGO      .CLOOP
.VT      ANOP
         DC       X'0B'
         AGO      .CLOOP
.HEX     ANOP
&I       SETA     &I+1
         AIF      (&I LE K'&STR).H1
         MNOTE    8,'Invalid hex escape sequence'
         MEXIT
.H1      ANOP
&C       SETC     '&STR'(&I,1)
         AIF      ('&C' GE '0' AND '&C' LE '9').H2
         AIF      ('&C' GE 'A' AND '&C' LE 'F').H2
         AIF      ('&C' GE 'a' AND '&C' LE 'f').H2
         MNOTE    8,'Invalid hex escape sequence'
         MEXIT
.H2      ANOP
&HC      SETC     '&C'
&I       SETA     &I+1
         AIF      (&I GT K'&STR).HO
&C       SETC     '&STR'(&I,1)
         AIF      ('&C' GE '0' AND '&C' LE '9').H3
         AIF      ('&C' GE 'A' AND '&C' LE 'F').H3
         AIF      ('&C' GE 'a' AND '&C' LE 'f').H3
         DC       X'0&HC'
         AGO      .L2
.H3      ANOP
         DC       X'&HC&C'
         AGO      .CLOOP
.*
.*
.*
.ELOOP   ANOP
         AIF      (K'&S EQ 0).NULL
         DC       C'&S'
.NULL    ANOP
         DC       X'00'
$CSL&$CSL EQU      *-$CSS&$CSL
         AIF      ('&NAME' EQ '').NNAME
         ORG      $CSS&$CSL
&NAME    DS       0CL($CSL&$CSL)
         ORG
.NNAME   ANOP
         MEND
