)ATTR
 * Type(output) Intens(low)  Just(asis) Caps(off)
 ! Type(output) Intens(high) Just(asis) Caps(off)
 $ Type(input)  Intens(high) Just(left) Caps(on)  Pad(_)
)BODY EXPAND(\\)
%------------ DISPLAY and CHANGE GROUP facility \-\-
%COMMAND ===>_ZCMD                                         +\ \+Scroll%==>_BSCR+
+
+  This panel shows all the%RACF groups+you belong to.
+
%  YES+in the%Default?+column means this is your RACF default group
%  YES+in the%Current?+column means this is the group you are using%now
+
+  You can select any%NU+prefixed group as your new%default+by typing%S+next to
+  it in the%Select+column. Please press%PF1+for more information
+
+  PF1 -%HELP  +PF3 -%QUIT  +PF7 -%UP  +PF8 -%DOWN  +ENTER -%PROCESS
+
%Select   Group     Default?  Current?  Comments
%-------  --------  --------  --------  --------------------------------------
)MODEL
  $Z+    *CONGROUP *DFTGROUP *CURGROUP !COMMENTS
)INIT
  /*******************************************************************/
  /*                                                                 */
  /* PANEL       : NUCHGRP                                           */
  /*                                                                 */
  /* AUTHOR      : Richard Haydock                                   */
  /*                                                                 */
  /* LAST UPDATE : 09/09/92                                          */
  /*                                                                 */
  /* PURPOSE     : List RACF groups, set new default                 */
  /*                                                                 */
  /* COMMENTS    : Called from S.PU                                  */
  /*                                                                 */
  /*******************************************************************/
  .HELP  = TNUCHGRP
  .ZVARS = '(OPT)'
  IF (&BSCR = &Z)
     &BSCR = HALF
  &OPT     = ' '
  &ZTDMARK =
'----------------------*** End of group list ***-------------------------------'
)REINIT
  &OPT     = ' '
)PROC
  IF (&ZTDSELS ¬= 0000)
    VER (&OPT,LIST,S,MSG=SPUM010)
  IF (&OPT = 'S')
    IF (&DFTGROUP = 'YES')
      VER (&OPT,LIST,&Z,MSG=SPUM011)
)END
