)ATTR
* TYPE(OUTPUT) JUST(LEFT)   CAPS(OFF) intens(low) color(green)
! TYPE(OUTPUT) JUST(RIGHT)  CAPS(OFF)
_ TYPE(INPUT)  CAPS(ON)     PADC(_)
? TYPE(INPUT)  INTENS(HIGH) CAPS(ON)
% TYPE(TEXT)   INTENS(HIGH) SKIP(ON)
+ TYPE(TEXT)   INTENS(LOW)  SKIP(ON)
¢ TYPE(TEXT)   INTENS(LOW)
)BODY EXPAND(\\) WINDOW(70,20)
+
%COMMAND ===>?ZCMD                    \ \+Scroll%==>_AMT +
+
+Line commands:      Primary Commands:                Information:
%I+Insert row       %EXTRA +Options                  +Type -%&TSOATYPE
%S+Update row       %CANCEL+End without saving.      +OSE  -%&TSOAPROC
%D+Delete row       %I     +Insert new DDNAME.
+
%  Keyword   DDNAME    From  Dataset name \-\-
)MODEL
_Z*KEYWORD +*DDDISP  +*SRC +*DSN                                     +
)INIT
  .ZVARS = '(OPT)'
  .HELP  = TTSOA001
  IF (&AMT = &Z)
     &AMT = CSR
  &OPT = ' '
  &ZTDMARK =
'-------------------*** End of Allocation list ***------------------'
)REINIT
  &OPT = ' '
)PROC
 IF (&ZTDSELS ¬= 0000)           /* IF USER SELECTED SOME ROWS ...
   VER (&OPT,LIST,S,D,I,MSG=TSOA010)
)END
