* ----------------------------------------------------------------- *
* THESE  ARE TWO ROUTINES THAT WILL GIVE THE TSO USER FULL CONSOLE  *
* SUPPORT.  IT CAN ME MODIFIED TO RUN XA.                           *
* GIVE THIS COMMAND TO THE GENERAL USER AND YOU HAVE JUST GIVEN UP  *
* CONTROL OF YOUR SYSTEM.                                           *
* ----------------------------------------------------------------- *
DCMS     TITLE 'C O N S O L E - DISPLAY CONSOLE SUPPORT FOR DCMS '
         MACRO
&NAME    PFSELECT &BYTE,&EXIT,&ROUTINE,&DUMMY=NOPFDEF
         LCLA  &I
         LCLC  &C
.*  MACRO - PFSELECT - SELECT A ROUTINE BASED UPON PFK INPUT
.*
.*  CALL SEQUENCE -
.*  NAME PFSELECT BYTE,EXIT-ROUTINE,(ROUTINES,...),DUMMY=DUMMYEXIT
.*  BYTE         - A VALID RX ADDRESS OF THE 3270 AID BYTE
.*  EXIT-ROUTINE - A VALIDRX ADDRESS OF AN EXIT TO  TAKE IF 'BYTE' DOES
.*                 NOT CONTAIN  A  VALID AID ( PF1 - PF12, AND  ENTER )
.*  ROUTINES     - VALID RX ADDRESS OR  NULL , ADDRESS  OF  ROUTINE  TO
.*                 BRANCH  TO  FOR EACH OF THE PF ENTRIES, THERE CAN BE
.*                 UP  TO  THIRTEEN VALID ADDRESSES, FOR THE 12 PF KEYS
.*                 AND THE THIRTEENTH BEING 'ENTER'
.*  DUMMY        - A VALID RX ADDRESS OF AN EXIT TO TAKE IF THERE IS NO
.*                 'ROUTINE' ENTRY FOR THAT PFKEY
.*
.*  EXAMPLE:
.*
.*  SELECT ROUTINE 'HELP' WHEN PF1 IS HIT, AND 'PRINT' WHEN PF4 IS HIT,
.*  WITH ALL OTHER ENTRIES GOING TO 'IGNORE', AID BYTE IS IN IOCBAID.
.*
.*
.*       PFSELECT IOCBAID,IGNORE,(HELP,,,PRINT),DUMMY=IGNORE
.*
.*
&NAME    DS    0H
         CLI   &BYTE,X'7A'         CHECK FOR A PFK
         BL    &EXIT               ...
         CLI   &BYTE,X'F9'         ...
         BH    &EXIT               ...
&I       SETA  1
         XR    R1,R1               GET SET FOR IC
         IC    R1,&BYTE
         LA    R0,15
         NR    R1,R0               ISOLATEINDEXBYTE
         SLL   R1,2                MULTIPLY * 4 USEFUL INDEX
         B     *(R1)               GO TO IT (THE ROUTINE THAT IS )
&I       SETA  1
.X1      ANOP
&C       SETC  '&DUMMY'
         AIF   ('&ROUTINE(&I)' EQ '').XX
&C       SETC  '&ROUTINE(&I)'
.XX      ANOP
         B     &C
&I       SETA  &I+1
         AIF   (&I LT 13).X1
         B     &DUMMY
         MEND
         MACRO
&NAME    SFMT  &BEEP=NO,&RESTORE=YES,&RESET=YES
         GBLA  &SFCOL,&SFROW,&SFLEN,&SFCNT
         GBLA  &SFLTBL(200),&SFSTRT(20),&SFEND(20),&SFFCT,&SFNCT
         GBLB  &SFNUM(200),&SFFLAG,&SFCUR
         GBLC  &SFFNAM(200),&SFNAM(20)
         GBLC  &SFENAM
         LCLB  &BP,&RR,&RS
         AIF   (&SFFLAG).E1
         AIF   (T'&NAME EQ 'O').E2
&SFFLAG  SETB  1
&SFNCT   SETA  &SFNCT+1
         AIF   (&SFNCT GT 20).ERR
&SFNAM(&SFNCT) SETC '&NAME'
&SFSTRT(&SFNCT) SETA &SFFCT+1
         AIF   ('&BEEP' EQ 'NO' OR '&BEEP' EQ 'YES').BEEPOK
         MNOTE 4,' BEEP=&BEEP ASSUMED TO MEAN BEEP=YES'
.BEEPOK  ANOP
&BP      SETB  ('&BEEP' NE 'NO')
         AIF   ('&RESTORE' EQ 'NO' OR '&RESTORE' EQ 'YES').RSTROK
         MNOTE 4,' RESTORE=&RESTORE ASSUMED TO MEAN RESTORE=NO'
.RSTROK  ANOP
&RR      SETB  ('&RESTORE' EQ 'YES')
         AIF   ('&RESET' EQ 'NO' OR '&RESET' EQ 'YES').RSTOK
         MNOTE 4,' RESET=&RESET ASSUMED TO MEAN RESET=NO'
.RSTOK   ANOP
&RS      SETB  ('&RESET' EQ 'YES')
&SFENAM  SETC  'SF&SYSNDX'
&NAME    DC    Y(L&SFENAM,&SFENAM)          LENGTHS
         DC    BL2'00000&BP&RR&RS.00000000' FLAGS
&SFCUR   SETB  0
&SFCNT   SETA  0
&SFLEN   SETA  0
&SFROW   SETA  1                  TOP OF SCREEN
&SFCOL   SETA  2                  POSITION 1 IS AN ATTRIBUTE BYTE
         MEXIT
.E1      MNOTE 8,'OUT OF SEQUENCE'
         MEXIT
.E2      MNOTE 8,'FORMAT NAME REQUIRED'
         MEXIT
.ERR     MNOTE 12,'*** TOO MANY DIFFERENT FORMATS ***'
         MEND
         MACRO
         SFEND
         GBLA  &SFLEN,&SFCNT
         GBLA  &SFLTBL(200),&SFSTRT(20),&SFEND(20),&SFFCT,&SFNCT
         GBLB  &SFNUM(200),&SFFLAG,&SFCUR
         GBLC  &SFFNAM(200),&SFNAM(20)
         GBLC  &SFENAM
         LCLA  &T
         AIF   (&SFFLAG).INITOK
         MNOTE 8,'OUT OF SEQUENCE'
         MEXIT
.INITOK  ANOP
&SFFLAG  SETB  0
&SFEND(&SFNCT) SETA &SFFCT
L&SFENAM EQU   &SFLEN             TOTAL STORAGE REQUIRED FOR IMAGE
&T       SETA  8*&SFCNT+6
&SFENAM  EQU   &T                 TOTAL LENGTH OF FORMAT TABLE
         MEND
         MACRO
&NAME    TRMIO &BLOCK,&TYPE,&FORMAT=,&IMAGE=,&RESTORE=,&RESET=,&BEEP=, X
               &CURSOR=,&WAIT=YES,&ADDR=
         LCLB  &M(8),&A(8)
         AIF   (T'&BLOCK NE 'O').INITOK
         MNOTE 8,' FIRST OPERAND MISSING'
         MEXIT
.INITOK  ANOP
&NAME    IHBINNRA &BLOCK
         AIF   (T'&FORMAT EQ 'O').NOF
         IHBINNRA ,&FORMAT
         ST    0,0(,1)            SET NEW FORMAT
.NOF     AIF   (T'&IMAGE EQ 'O').NOI
         LA    0,&IMAGE
         ST    0,4(,1)            SET NEW IMAGE AREA
.NOI     ANOP
         AIF   (T'&TYPE EQ 'O' OR '&TYPE' EQ 'CONV').ETYP
         AIF   ('&TYPE' NE 'READ').TY1
&M(1)    SETB  1
         AGO   .ETYP
.TY1     AIF   ('&TYPE' NE 'WRITE').TY2
&M(2)    SETB  1
         AGO   .ETYP
.TY2     AIF   ('&TYPE' NE 'WAIT').TY3
&M(1)    SETB  1
&M(2)    SETB  1
         AGO   .ETYP
.TY3     AIF   ('&TYPE' NE 'NEWFMT').TY4
&M(1)    SETB  1
&M(2)    SETB  1
&M(3)    SETB  1
         AGO   .ETYP
.TY4     MNOTE 8,' SECOND ARGUMENT (&TYPE) INVALID, CONV ASSUMED'
.ETYP    ANOP
         AIF   ('&WAIT' EQ 'YES').EWT
         AIF   (&M(1) AND &M(2)).WAITER
&M(3)    SETB  1
         AIF   ('&WAIT' EQ 'NO').EWT
         MNOTE 4,' WAIT=&WAIT ASSUMED TO MEAN WAIT=NO'
         AGO   .EWT
.WAITER  MNOTE 4,'WAIT=&WAIT SHOULD NOT BE CODED WITH THIS TYPE CALL'
.EWT     ANOP
         AIF   (T'&CURSOR EQ 'O').ECUR
&M(4)    SETB  1
         AIF   ('&CURSOR'(1,1) EQ '(').REGCUR
         LH    0,&CURSOR
         STH   0,12(,1)           SET THE CURSOR POSITION
         AGO   .ECUR
.REGCUR  STH   &CURSOR,12(,1)     SET THE NEW CURSOR POSITION
.ECUR    ANOP
         AIF   (T'&BEEP NE 'O').YBEEP
&M(6)    SETB  1
         AGO   .EBEEP
.YBEEP   AIF   ('&BEEP' EQ 'NO').EBEEP
         AIF   ('&BEEP' EQ 'YES').DOBEEP
         MNOTE 4,' BEEP=&BEEP ASSUMED TO MEAN BEEP=YES'
.DOBEEP  ANOP
&A(6)    SETB  1
.EBEEP   ANOP
         AIF   (T'&RESTORE NE 'O').YRST
&M(7)    SETB  1
         AGO   .ERST
.YRST    AIF   ('&RESTORE' EQ 'NO').ERST
         AIF   ('&RESTORE' NE 'YES').BRST
&A(7)    SETB  1
         AGO   .ERST
.BRST    MNOTE 4,' RESTORE=&RESTORE ASSUMED TO MEAN RESTORE=NO'
.ERST    ANOP
         AIF   (T'&RESET NE 'O').YRES
&M(8)    SETB  1
         AGO   .ERES
.YRES    AIF   ('&RESET' EQ 'NO').ERES
         AIF   ('&RESET' EQ 'YES').DORES
         MNOTE 4,' RESET=&RESET ASSUMED TO MEAN RESET=NO'
         AGO   .ERES
.DORES   ANOP
&A(8)    SETB  1
.ERES    ANOP
         MVI   14(1),B'&M(1)&M(2)&M(3)&M(4)&M(5)&M(6)&M(7)&M(8)'  MASK
         AIF   (&M(6) AND &M(7) AND &M(8)).CALLIO
         MVI   15(1),B'00000&A(6)&A(7)&A(8)'       WCC
.CALLIO  ANOP
         AIF   ('&ADDR' EQ '').VCON
         AIF   ('&ADDR'(1,1) EQ '(').REGER
         L     15,&ADDR            LOAD ADDRESS OF TERMIO
         AGO   .BALR
.REGER   LR    15,&ADDR(1)         LOAD ADDRESS OF TERMIO
         AGO   .BALR
.VCON    L     15,=V(TERMIO#)      LOAD ADDRESS OF TERMIO
.BALR    BALR  14,15
         MEND
         MACRO
&NAME    IOCB
&NAME    DS    0F
IOCBFMT  DS    A
IOCBIMG  DS    A
IOCBDECB DS    A
IOCBCUR  DS    H                  CURSOR OFFSET FROM START OF IMAGE
IOCBFLGS DS    X
IOCBFNWR EQU   X'80'              FLAG FOR NO WRITE
IOCBFNRD EQU   X'40'              FLAG FOR NO READ
IOCBFW8  EQU   X'C0'              FLAGS FOR WAIT (CHECK) ONLY
IOCBFNWT EQU   X'20'              FLAG FOR NO WAIT
IOCBFCUR EQU   X'10'              FLAG FOR CURSOR ADDRESS SPECIFIED
IOCBFNBP EQU   X'04'              FLAG FOR BEEP NOT OVERRIDDEN
IOCBFNRR EQU   X'02'              FLAG FOR RESTORE NOT OVERRIDDEN
IOCBFNRS EQU   X'01'              FLAG FOR RESET NOT OVERRIDDEN
IOCBAID  EQU   IOCBFLGS           AID RETURNED AFTER READ
AIDENT   EQU   X'7D'              ENTER KEY AID
AIDPF1   EQU   X'F1'
AIDPF2   EQU   X'F2'
AIDPA1   EQU   X'6C'
AIDPA2   EQU   X'6E'
AIDCAN   EQU   AIDPA2
AIDPA3   EQU   X'6B'
AIDCLR   EQU   X'6D'
IOCBWCC  DS    X                  WRITE CONTROL CHARACTER
IOCBWBP  EQU   X'04'              BEEP
IOCBWRR  EQU   X'02'              WCC RESTORE
IOCBWRS  EQU   X'01'              WCC RESET MDT
         MEND
         MACRO
&NAME    FIELD &LEN,&TYPE,&INTEN=,                                     X
               &MDT=OFF,&CURSOR=NO,&ROW=,&COLUMN=,                     X
               &INTRAN=YES,&OUTTRAN=YES
         GBLA  &SFCOL,&SFROW,&SFLEN,&SFCNT
         GBLA  &SFLTBL(200),&SFSTRT(20),&SFEND(20),&SFFCT,&SFNCT
         GBLB  &SFNUM(200),&SFFLAG,&SFCUR
         GBLC  &SFFNAM(200),&SFNAM(20)
         LCLA  &I,&J,&K
         AIF   (&SFFLAG).INITOK
         MNOTE 8,'OUT OF SEQUENCE'
         MEXIT
.INITOK  ANOP
         AIF   (T'&LEN NE 'N').E1
         AIF   (&LEN LT 1 OR &LEN GT 1900).E1
         AIF   ('&CURSOR' EQ 'NO' OR '&CURSOR' EQ 'YES' OR '&CURSOR' EQX
                'AFTER').CUROK
         MNOTE 4,'CURSOR=&CURSOR ASSUMED TO MEAN CURSOR=YES'
.CUROK   AIF   ('&CURSOR' EQ 'NO').NOCUR
         AIF   (NOT &SFCUR).FIRSTC
         MNOTE 4,' ONLY ONE FIELD MAY HAVE A CURSOR IN IT'
         AGO   .NOCUR
.FIRSTC  ANOP
&SFCUR   SETB  1
         AIF   ('&CURSOR' EQ 'AFTER').CURAFT
&I       SETA  128                FLAGS (CURSOR IN FIELD)
         AGO   .ENDCUR
.CURAFT  ANOP                     FLAGS (CURSOR AFTER DATA IN FIELD)
&I       SETA   128+64
         AGO   .ENDCUR
.NOCUR   ANOP                     FLAGS (NO CURSOR)
&I       SETA  0
.ENDCUR  ANOP
         AIF   ('&INTRAN' EQ 'YES').NOINT
&I       SETA  &I+1               FLAGS (NO TRANSLATE INPUT)
.NOINT   AIF   ('&OUTTRAN' EQ 'YES').NOOUTT
&I       SETA  &I+2               FLAGS (NO TRANSLATE OUTPUT)
.NOOUTT  ANOP
         DC    AL1(&I)            FLAGS (CURSOR, TRANSLATE)
         AIF   (T'&TYPE EQ 'O' OR '&TYPE' EQ 'DISPLAY').DISP
         AIF   ('&TYPE' EQ 'ALPHA').ALPHA
         AIF   ('&TYPE' EQ 'NUMERIC').NUM
         MNOTE 8,' INVALID SECOND ARGUMENT (&TYPE) IGNORED'
         AGO   .DISP
.NUM     ANOP
&I       SETA  16
.ALPHA   AIF   (T'&INTEN NE 'O').CKINT
&I       SETA  &I+4
         AGO   .EINT
.DISP    ANOP
&I       SETA  48
         AIF   (T'&INTEN NE 'O').CKINT
&I       SETA  56
         AGO   .EINT
.CKINT   AIF   ('&INTEN' NE 'OFF').INT1
&I       SETA  &I+12
         AGO   .EINT
.INT1    AIF   ('&INTEN' NE 'LO').INT2
&I       SETA  &I+4
         AGO   .EINT
.INT2    AIF   ('&INTEN' EQ 'HI').INT3
         MNOTE 4,' INTEN=&INTEN ASSUMED TO MEAN INTEN=HI'
.INT3    ANOP
&I       SETA  &I+8
.EINT    ANOP
         AIF   ('&MDT' EQ 'OFF' OR '&MDT' EQ 'ON').MDTOK
         MNOTE 4,' MDT=&MDT ASSUMED TO MEAN MDT=ON'
.MDTOK   AIF   ('&MDT' EQ 'OFF').EMDT
&I       SETA  &I+1
.EMDT    ANOP
&J       SETA  &I-(&I/16)*16
&I       SETA  &I+64
         AIF   (&J GT 9 OR &J EQ 0 OR &I EQ 97).SPEC
&I       SETA  &I+128
.SPEC    DC    AL1(&I)            ATTRIBUTE BYTE
.*
.*       NOW WE MUST FIND THE COLUMN AND ROW THAT THE DATA START IN.
.*       NOTE THAT THE BYTE IN FRONT OF THERE MUST BE FREE FOR THE
.*             ATTRIBUTE BYTE.
.*
&I       SETA  &SFROW
         AIF   (T'&ROW EQ 'O').NOROW
         AIF   (T'&ROW EQ 'N').ROWOK
.BADROW  MNOTE 8,' INVALID ROW=&ROW IGNORED'
&I       SETA  &SFROW
         AGO   .NOROW
.ROWOK   ANOP
         AIF   (&I LT 1 OR &I GT 24).BADROW
&I       SETA  &ROW
         AIF   (&I EQ &SFROW).NOROW
         AIF   (&I GT &SFROW).NEWROW
         MNOTE 8,' ROW=&ROW SPECIFIES ROW ABOVE CURRENT ROW (&SFROW)'
&I       SETA  &SFROW
         AGO   .NOROW
.NEWROW  ANOP
&SFCOL   SETA  1
.NOROW   ANOP
&J       SETA  &SFCOL
         AIF   (T'&COLUMN EQ 'O').NOCOL
         AIF   (T'&COLUMN EQ 'N').COLOK
.BADCOL  MNOTE 8,' INVALID COLUMN=&COLUMN IGNORED'
&J       SETA  &SFCOL
         AGO   .NOCOL
.COLOK   ANOP
&J       SETA  &COLUMN
         AIF   (&J LT 1 OR &J GT 80).BADCOL
         AIF   (&J GE &SFCOL).NOCOL
         AIF   (T'&ROW EQ 'O').BUMPROW
         MNOTE 8,' COLUMN=&COLUMN CAUSES FIELD OVERLAP'
&J       SETA  &SFCOL
         AGO   .NOCOL
.BUMPROW ANOP
&I       SETA  &I+1
.NOCOL   ANOP
         MNOTE *,' &LEN BYTE FIELD IN ROW &I COLUMN &J'
&K       SETA  (&I-1)*80+&J-1
         DC    Y(&K,&SFLEN,&LEN)  BUFF ADDR, IMAGE OFFSET, LENGTH
&SFROW   SETA  &I
&SFCOL   SETA  &J+&LEN+1
.RCTST   AIF   (&SFCOL LE 80).RCUPD
&SFROW   SETA  &SFROW+1
&SFCOL   SETA  &SFCOL-80
         AGO   .RCTST
.RCUPD   ANOP
&SFLEN   SETA  &SFLEN+&LEN
&SFCNT   SETA  &SFCNT+1
&SFFCT   SETA  &SFFCT+1
         AIF   (&SFFCT GT 200).ERR
&SFLTBL(&SFFCT) SETA &LEN
&SFNUM(&SFFCT) SETB ('&TYPE' EQ 'NUMERIC')
&SFFNAM(&SFFCT) SETC '&NAME'
         MEXIT
.E1      MNOTE 8,'INVALID LENGTH SPECIFIED'
         MEXIT
.ERR     MNOTE 12,'*** TOO MANY FIELDS TOTAL IN ALL FORMATS ***'
         MEND
         MACRO
         IEERDCM
*     01/15/73          LEVEL=05                              MB Y02958
DCMTSRT  DSECT DCMTSPTR
DCMADTRN DS    A                   POINTER TO PAGABLE DCM
         DS    CL1                 RESERVED
DCMRFLGS DS    BL1                 FLAGS
DCMDOM   EQU   X'10'               DOM MUST BE TRIED
DCMNIPP  EQU   X'08'               DCM WAS USED BY NIP
DCMLEN   DS    H                   LENGTH OF PAGABLE DCM
DCMADKP  DS    A                   ADDRESS OF ROUTED K COMMAND
*                                   PARAMETER LIST
DCMTOPAR DS    CL1                 TOP DISPLAY AREA DEFINED
DCMTOPDS DS    CL1                 TOP DISPLAY ON SCREEN
         DS    BL1                 RESERVED
DCMDEVTY DS    BL1                 DEVICE TYPE FLAGS
DCMTY60  EQU   X'80'               USABLE FOR SD
DCMTY50  EQU   X'40'               NOT USABLE FOR SD
DCMADSDS DS    A                   POINTER TO FIRST SDS SUPPORT AREA
DCMRMS   DS    CL1                 NUMBER OF CCWS TO WRITE
DCMADRMS DS    AL3                 POINTER TO RMS CCWS
DCMWLAST DS    A                   PT CON Q ENTRY LAST OUT (O-O-L)
DCMRMSAL DS    H                   NUMBER LINES IN MSG AREA
DCMDOMKY DS    H                   CONSOLE DOM ELEMENT        MC XM5812
DCMSUBAD DS    A                   POINTER TO SUB CONTROL BLOCK
DCMADPFK DS    A                   POINTER TO RESIDENT PFK AREA
DCMINTVL DS    H                   INTERVAL FOR THIS DCM
DCMTMCTR DS    H                   TIME COUNTER FOR THIS DCM
DCMR2FLG DS    BL1                 TIMER FLAGS
DCMRXSFL EQU   X'80'               FULL SCREEN FLAG
DCMRXUNV EQU   X'40'               UNVIEWABLE MESSAGE DISPLAYED
DCMRXTMR EQU   X'20'               TIMER FLAG
DCMRXRLL EQU   X'10'               READY TO ROLL
DCMRXDEL EQU   X'08'               PENDING DELETE REQUEST
DCMRXTIM EQU   X'02'               TIMER ELAPSED FOR THIS DISPLAY
DCMR3FLG DS    BL1                 MISC FLAGS
DCMSTSWT EQU   X'80'               CHANGING STATUS OF OUTPUT ONLY CON
DCMKVIP  EQU   X'40'               ENTRY FOR K VARY COMMAND
DCMCLPR  EQU   X'20'               CLOSE IN PROCESS
DCMRXSCN EQU   X'10'               ASY ERROR MESSAGE ON SCREEN
DCMR3PKA EQU   X'08'               DA I/O COMPLETE
DCMRXHMT EQU   X'04'               FULL SCREEN SIMULATED      MC YM4102
         DS    H                   RESERVED
DCMRQDEL DS    A                   DELETE REQUEST BUFFER
         DS    A                   DELETE REQUEST BUFFER
DCMMSGSV DS    A                   POINTER TO SAVED NIP MESSAGES
DCMPACB  EQU   *                   SACB PREFIX
DCMPLN   DS    FL2                 SYSGEN LENGTH OF AREA
DCMPLNPR DS    H                   LENGTH OF SACB PREFIX-IN BYTES
DCMPRSZ  EQU   *-DCMPACB           SIZE OF PREFIX
DCMACB   EQU   *                   SACB
DCMACBNX DS    A                   POINTER TO NEXT SACB
DCMAID   DS    CL1                 AREA ID
DCMASACB DS    BL1                 SACB FLAGS
DCMAUSE  EQU   X'80'               AREA PRESENTLY DEFINED     MB Y02958
*    IF DCMAUSE IS OFF, A SYSGEND AREA HAS BEEN FREED E.G. K A,NONE
DCMAGM   EQU   X'40'               GETMAINED SACB
DCMALN   DS    FL2                 LENGTH OF AREA
DCMATOP  DS    FL1                 TOP ROW OF AREA
DCMACLR  EQU   *                   REINITIALIZED PORTION      MB Y02958
DCMAROW  DS    FL1                 ROW TO BE WRITTEN NEXT
DCMAFR   DS    H                   FRAME ON SCREEN
DCMAMJWQ DS    A                   POINTER TO CON Q ENTRY FOR MAJOR
DCMAMIN  DS    A                   POINTER TO MINOR WQE
DCMATIME DS    F                   TIME CONTROL LINE WAS WRITTEN
DCMAMT   DS    XL2                 RESERVED                   MB Y02958
DCMAFLG1 DS    XL1                 AREA FLAGS1
DCMADISP EQU   X'40'               DISPLAY IN AREA
DCMADEND EQU   X'20'               END OF DISPLAY ON SCREEN
DCMAFRPR EQU   X'10'               FRAMING IN PROGRESS
DCMAFULL EQU   X'08'               FRAME FULL
DCMABL   EQU   X'04'               BLANKING TO BE DONE
DCMAFLG2 DS    XL1                 AREA FLAGS 2
DCMALMIN EQU   X'80'               SAVED POINTER TO LAST MINOR OUTPUT
DCMAWCON EQU   X'40'               WRITE CONTROL LINE
DCMARCON EQU   X'20'               REWRITE CONTROL LINE
DCMAMJFR EQU   X'10'               MAJOR WQE HAS BEEN FOUND
DCMADFLG DS    XL1                 DYNAMIC DISPLAY FLAGS      MB Y02958
DCMADD   EQU   X'80'               TRACK IN AREA              MB Y02958
DCMAHOLD EQU   X'40'               TRACK IN HOLD MODE         MB Y02958
DCMACSIB EQU   X'20'               TRACK WITH CONTINUATION LINE IN     *
                                   SCREEN IMAGE BUFFER        MB Y02958
DCMATRCK DS    X                   TRACK REQUEST INDICATORS   MB Y02958
DCMATJOB EQU   X'80'               TRACK JOBS                 MB Y02958
DCMATJBL EQU   X'40'               TRACK JOBS,LIST            MB Y02958
DCMATTS  EQU   X'08'               TRACK TS                   MB Y02958
DCMATTSL EQU   X'04'               TRACK TS,LIST              MB Y02958
DCMATA   EQU   X'88'               TRACK A                    MB Y02958
DCMATAL  EQU   X'44'               TRACK A,LIST               MB Y02958
DCMAUTME DS    XL2                 UTME=NNN VALUE             MB Y02958
DCMATECB DS    F                   TRACK CANCEL ECB ADDRESS   MB Y02958
DCMAPAD  DS    F                   RESERVED                   MB Y02958
DCMACBND EQU   *                   SACB END
DCMCLRLN EQU   *-DCMACLR           LENGTH FOR REINITIALIZING  MB Y02958
DCMACBSZ EQU   *-DCMACB            SACB SIZE
DCMREND  DS    0C                  END OF DCM
         MEND  , */
         MACRO
         IEETDCM
*     12/15/72          LEVEL=04
* * * * * * * * * * * * * * * * * * * * * * * * * * * * * * * * * * * *
*                                                                     *
*                         WORK AND SAVE AREAS                         *
*                                                                     *
* * * * * * * * * * * * * * * * * * * * * * * * * * * * * * * * * * * *
DCMSTRT  DSECT DCMSTPTR
         DS    0F                  FULL WORD ALIGNMENT
         DS    H                   DCM LENGTH
         DS    H                   PADDING
         SPACE 4
DCMFLG1  DS    BL1                 DCM AREA INDICATORS
         SPACE 2
DCMOUTPT EQU   X'02'               DCM UPDATED FOR OUTPUT ONLY
         SPACE 4
DCMATI   DC    X'00'               SAVED UCB ATTN INDEX      MC SA55058
         DC    AL2(0)              RESERVED                  MC SA55058
         SPACE 2
DCMWTINT DS    A                   DCMWTINT INITIAL VALUE
DCMLNCNT DS    H                   NUMBER OF LINES TO BLANK  MC SA53462
DCMLNNUM DC    X'00'               FIRST LINE TO BLANK       MC SA53462
         DC    X'00'               RESERVED                  MC SA53462
DCMPACK  DS    F                   AREA TO PLACE NUMBER FOR PACKING
DCMCVBIN DS    F                   AREA FOR CONVERSION TO BINARY
         SPACE 2
DCMTIMES DS    BL1                 TIME RTNS INDICATOR BYTE
         SPACE 2
DCMTIMER EQU   X'80'               TIME ELAPSED FOR THIS DISPLAY
DCMOPTTI EQU   X'40'               OPTIONS TO TI RTN
DCMOTTMM EQU   X'10'               OPTIONS OR TI RTNS TO MSG MODULE
DCMTASYN EQU   X'04'               TIMER SET FOR ASYNC ERROR MSG
DCMOCTTI EQU   X'02'               OPEN-CLOSE TO TI RTN
DCMRMTTI EQU   X'01'               ROLL MODE TO TIMER ROUTINE
         EJECT
         DS    XL1                 UNUSED
         SPACE 2
DCMELGN  DS    H                   ENTRY AREA LAST CHARACTER POINTER
         SPACE 2
DCMBUFAD DS    A                   POINTER TO BUFFER ADDRESS TABLE
DCMDOMPK DS    A                   ADDRESS OF FIRST DOM NUMBER
DCMAMTAB DS    A                   ADDRESS OF FIRST SCT ENTRY
DCMADSEC DS    A                   ADDRESS OF FIRST SSCT ENTRY
DCMADDRL DS    A                   ADDRESS OF LAST SCT ENTRY
DCMASCRN DS    A                   POINTER TO SCREEN IMAGE BUFFER
DCMLSCRN DS    A                   POINTER TO LAST BUFFER LINE
DCMWTBUF DS    A                   SCREEN LENGTH POINTER
DCMAINS  DS    A                   POINTER TO INSTRUCTION LINE
DCMAENTR DS    A                   POINTER TO ENTRY AREA
DCMAWARN DS    A                   POINTER TO WARNING LINE
DCMADCHP DS    A                   ADDRESS OF CHANNEL PROGRAM AREA
DCMPFKLN DS    A                   POINTER TO PFK LINE
DCMCXSVE DS    F                   CXSA SAVE AREA
DCMADOPN DS    A                   ADDRESS OF COMMAND OPERAND
DCMDSAV  DS    5F                  SAVE AND WORK AREA
         SPACE 2
*           INPUT BUFFER FOR ISSUING SVC 34 AND SVC 35                *
*           FIELDS DCMWQEXP THROUGH DCMINPUT MUST REMAIN IN ORDER     *
DCMWQEXP DS    0F                  ENSURE FULL WORD BOUNDARY
DCMINLGN DS    H                   FIELD FOR INPUT LENGTH
DCMMCSFL DS    H                   MCS FLAGS FIELD
DCMINPUT DS    32F                 INPUT MESSAGE TEXT
         SPACE 2
DCMLGNTH DS    H                   LENGTH OF A LINE
DCMBAINC DS    H                   ADDRESS TO INSERT CURSOR
DCMIRCTR DS    H                   INTERVENTION REQ'D MSG COUNTER
DCMBADLN DS    H                   BUFFER ADDR TO BEGIN MSG WRITE
DCMBYTCT DS    H                   NUMBER OF BYTES TO WRITE
DCMADNUM DS    H                   NEXT LINE NUMBER
DCMAXLGN DS    H                   MAXIMUM LINE LENGTH
DCMMSGAL DS    H                   NUMBER OF LINES IN MESSAGE AREA
DCMRMINC DS    H                   INCREMENT INTO RMI
DCMSCTCN DS    H                   LENGTH OF ONE SCT ENTRY
DCMCORLN DS    H                   LENGTH OF DCM LINE IN CORE
         DS    H                   TIME COUNTER
DCMPFKNM DS    XL1                 NUMBER OF KEY BEING PROCESSED
DCMPFKKN DS    XL1                 LIST KEY NUMBER
         EJECT
DCMDEL   DS    CL2                 DEL VALUE
DCMCON   DS    CL1                 CON VALUE
DCMSEG   DS    FL1                 SEG VALUE
DCMDL    DS    FL1                 DISPLAY AREA OPTION
DCMRNUM  DS    FL1                 ROLL NUMBER VALUE
DCMRTME  DS    H                   ROLL TIME VALUE
         SPACE 2
*  DEFAULT VALUES FOR OPTIONS
DCMSEGDF DS    FL1                 SEG DEFAULT
DCMRNUMD DS    FL1                 RNUM DEFAULT
DCMRTMED DS    H                   RTME DEFAULT
         SPACE 2
DCMASKEN DS    XL1                 ENTER MASK
DCMASKCN DS    XL1                 CANCEL MASK
DCMASKCR DS    XL1                 CURSOR MASK
DCMASKLP DS    XL1                 LIGHT PEN MASK
DCMASKPF DS    XL1                 PFK MASK
         EJECT
* * * * * * * * * * * * * * * * * * * * * * * * * * * * * * * * * * * *
*                                                                     *
*                         COMMUNICATIONS AREA                         *
*                                                                     *
* * * * * * * * * * * * * * * * * * * * * * * * * * * * * * * * * * * *
         SPACE 2
DCMOPTST DS    BL1                 STATUS OF SCREEN CONTROL OPTIONS
         SPACE 2
DCMOPTVR EQU   X'80'               DELETE VERIFICATION  CON=(Y=1,N=0)
DCMOPTAD EQU   X'40'               AUTOMATIC DELETION   DEL=(Y=1,N=0)
DCMOPTSG EQU   X'20'               DEFAULT SEGMENT SPECIFIED  SEG=(0=0)
DCMOPRLL EQU   X'10'               ROLL MODE  (Y=1,N=0)
         SPACE 4
DCMCS    DS    BL1                 OPEN/CLOSE REQUEST
         SPACE 2
DCMCSC   EQU   X'80'               CLOSE REQUEST
DCMCSO   EQU   X'40'               OPEN REQUEST
         SPACE 4
DCMUTILT DS    BL1                 RESERVED
         SPACE 2
DCMUTILA EQU   X'80'               THESE BITS ARE
DCMUTILB EQU   X'40'                 INITIALIZED AND USED
DCMUTILC EQU   X'20'                 SOLELY WITHIN
DCMUTILD EQU   X'10'                 EACH MODULE
DCMUTILE EQU   X'08'               THEY ARE NEVER
DCMUTILF EQU   X'04'               USED FOR INTERFACE
DCMTEST1 EQU   X'02'               FOR TESTING
DCMTEST2 EQU   X'01'               FOR TESTING
         SPACE 4
DCMDSTAT DS    BL1                 CURRENT DISPLAY STATUS
         SPACE 2
DCMDSTNM EQU   X'20'               MESSAGES ARE NUMBERED
DCMDSTNH EQU   X'10'               MSGS NUMBERED - HOLD OPTION
DCMDSINR EQU   X'08'               INTERVENTION REQ'D DELETION TRIED
DCMDSAUT EQU   X'04'               AUTOMATIC DELETION TRIED
         SPACE 4
DCMMCSST DS    BL1                 MCS INTERFACE BYTE
         SPACE 2
DCMDUSE  EQU   X'80'               OUR SUPPORT IN CONTROL
DCMOOMSS EQU   X'04'               MESSAGE STREAM ENTRY
DCMOOSDS EQU   X'01'               STATUS DISPLAY ENTRY
         SPACE 4
DCMIOUNQ DS    BL1                 UNIQUE IO BYTE
         SPACE 2
*  UNIQUE INTERFACE BITS FOR 2260
DCMIO226 EQU   X'80'               RMI PERFORMED
DCMRPCUR EQU   X'40'               ADVANCE CURSOR TO BLANKS
DCMFRSCN EQU   X'20'               PUT OUTPUT IN HOLD MODE
*  UNIQUE INTERFACE BITS FOR 2250
DCMRDARM EQU   X'10'               PERFORM READ AFTER RMI
DCMW2250 EQU   X'08'               DEVICE IS 2250
DCMINNOR EQU   X'04'               NORMAL INSTRUCTION LINE
DCMINERR EQU   X'02'               ERROR INSTRUCTION LINE
         SPACE 4
DCMIOCM1 DS    BL1                 IO COMMUNICATIONS BYTE 1
         SPACE 2
DCMDORMI EQU   X'80'               ISSUE RMI
DCMSOUND EQU   X'40'               SOUND ALARM
DCMWRWRN EQU   X'20'               WRITE WARNING LINE
DCMWRMSG EQU   X'10'               WRITE FULL MESSAGE AREA
DCMWRPAR EQU   X'08'               WRITE PARTIAL MESSAGE AREA
DCMWRINS EQU   X'04'               WRITE INSTRUCTION LINE
DCMWRENT EQU   X'02'               WRITE ENTRY AREA
DCMINSC  EQU   X'01'               INSERT CURSOR
         EJECT
DCMIOCM2 DS    BL1                 IO COMMUNICATIONS BYTE 2
         SPACE 2
DCMBLENT EQU   X'80'               BLANK ENTRY AREA
DCMBLWRL EQU   X'40'               BLANK LEFT HALF WARNING LINE
DCMBLWRR EQU   X'20'               BLANK RIGHT HALF WARNING LINE
DCMINSSH EQU   X'10'               INIT AND SHIFT INSTRUCTION LINE
DCMWINFD EQU   X'08'               WRITE INFORMATIONAL DISPLAY
DCMERASE EQU   X'04'               PERFORM ERASE
DCMIOCRD EQU   X'02'               PERFORM READ (2250,22DOC)
DCMWRASY EQU   X'01'               WRITE ASYNC ERROR MSG TO MID-SCREEN
         SPACE 4
DCMIOCM3 DS    BL1                 IO COMMUNICATIONS BYTE 3
         SPACE 2
DCMOPRMI EQU   X'80'               RMI AFTER OPEN TO UNLOCK KEYBOARD
DCMSSRG  EQU   X'40'               SUPPRESS START REGENERATION
DCMWRPFK EQU   X'10'               DCM WRITE PFK AREA
DCMPFKAT EQU   X'08'               PFK ATTENTION
DCMRDPFK EQU   X'04'               PFK AREA READ
DCMACPFK EQU   X'02'               TURN ACTIVE PFK LIGHTS ON
DCMLTPFK EQU   X'01'               TURN ALL PFK LIGHTS ON
         SPACE 4
DCMLINEN DS    XL1                 LINE NUMBER TO BEGIN WRITE
         SPACE 2
DCMCULNO DS    XL1                 LINE IN ENTRY AREA TO INSERT CURSOR
         SPACE 2
DCMPOSCU DS    XL1                 POSITION TO INSERT CURSOR
         SPACE 4
DCMASYNC DS    BL1                 ASYN ERROR COMMUNICATIONS/RETRY BYTE
         SPACE 2
DCMASDA  EQU   X'40'               RETRY BIT
DCMASIN  EQU   X'20'               RETRY BIT
DCMASBA  EQU   X'10'               RETRY BIT
DCMASLOG EQU   X'08'               LOG ASYNCHRONOUS ERROR
         EJECT
DCMCOM1  DS    BL1                 COMMUNICATIONS BYTE
         SPACE 2
DCMLPENT EQU   X'80'               ENTER BY LP OR CURSOR
DCMIOPRD EQU   X'40'               READ PERFORMED
DCMCOMRM EQU   X'20'               RMI PERFORMED
DCMCOMAU EQU   X'10'               PERFORM AUTO DELETE
DCMCOMRD EQU   X'08'               PERFORM REGULAR DELETE
DCMCOMNM EQU   X'04'               NUMBER MESSAGES
DCMCANCL EQU   X'01'               INDICATE CANCEL TO COMMAND ROUTINE
         SPACE 3
DCMCOM2  DS    BL1                 COMMUNICATIONS BYTE
         SPACE 2
DCMCM2I  EQU   X'80'               INPUT TO BE PROCESSED
DCMSPLIT EQU   X'40'               MSG TO BE SPLIT
DCMCOMAR EQU   X'20'               ACCEPTED REPLY
DCMERPF  EQU   X'08'               ERASE PERF-PROC CAN NOW CLOSE DEVICE
DCMCMIN5 EQU   X'04'               RETURN TO INTER. 5 FOR BLNK
DCMCBLNK EQU   X'02'               BLANKING REQUIRED
DCMAE    EQU   X'01'               CLEANUP FOR ASY ERROR
         SPACE 3
DCMCOM3  DS    BL1                 COMMUNICATIONS BYTE
         SPACE 2
DCMCDSP3 EQU   X'80'               DISPLAY 3 COMPLETED WORK
DCMRTPFK EQU   X'40'               RETURN TO PFK ROUTINE
DCMVLPFK EQU   X'20'               VERIFYING LAST COMMAND
DCMXINT1 EQU   X'10'               ENTRY FOR INTERFACE 1 ROUTINE
DCMOLUNV EQU   X'08'               O-O-L MSG CAUSED UNVIEW. MSG.
DCMPFKWR EQU   X'04'               WRITE PFK UPDATES TO LIB
DCMOLHLD EQU   X'02'               OUT OF LINE MESSAGES HELD  MB Y02958
DCMCMIN7 EQU   X'01'               RETURN TO INTER. 7 FOR BLANKING
         SPACE 3
DCMCMSG1 DS    BL1                 MSG MODULE COMMUNICATIONS BYTE 1
         SPACE 2
DCMMSGWT EQU   X'80'               MOVE IN MESSAGE WAITING
DCMUNMSG EQU   X'40'               MOVE IN UNVIEWABLE MESSAGE
DCMSTEX  EQU   X'20'               MOVE IN STATUS EXISTS
DCMCHOPT EQU   X'10'               MOVE IN CHANGE OPTIONS