* ---------------------------------------------------------------- *
* THIS PROGRAM AND THE FOLLOWING VM EXEC ARE JUST FOR FUN.         *
* PUT MURPHY IN YOUR PROFILE OR LOGON CLIST.
* ---------------------------------------------------------------- *
         MACRO
&NAME    COMEIN &BASE=3,&SAVE=MYSAVE,&REGS=R,&RC=CC,&LINK=14,&BASE2=
         GBLC  &COMEIN
&COMEIN  SETC  '&RC'
&NAME    START 0
         STM   &REGS.14,&REGS.12,12(&REGS.13)  SAVE RETURN REGS
         AIF   ('&BASE2' EQ '').ONEBASE
         USING &NAME,&REGS&BASE,&REGS&BASE2  EST ADDRESSABILITY
         LR    &REGS&BASE,&REGS.15   GET THE LOAD POINT
         LA    &REGS&BASE2,4095(&REGS&BASE) PRIME BASE NUMBER 2
         LA    &REGS&BASE2,1(&REGS&BASE2)  NOW NUMBER 2 IS SET
         AGO   .BASESET
.ONEBASE USING &NAME,&REGS&BASE    ESTABLISH ADDRESSABILITY
         LR    &REGS&BASE,&REGS.15
.BASESET LR    &REGS.14,&REGS.13   CHAIN SAVE AREAS
         BAL   &REGS.13,&SAVE.+92  SET 13 TO CURRENT SAVE AREA
&SAVE    DC    18F'0'              CURRENT SAVE AREA
&RC      DC    F'0'                RETURN CODE HOLD AREA
         L     &REGS.13,&SAVE.+4    CODE TO RETURN TO CALLING PGM
         MVC   16(4,&REGS.13),&RC   SET UP RETURN CODE
         LM    &REGS.14,&REGS.12,12(&REGS.13)
         BR    &REGS.14             RETURN
         ST    &REGS.14,&SAVE.+4   ABOVE BAL COMES HERE
         ST    &REGS.13,8(&REGS.14)
         SPACE 1
&REGS.0  EQU   0                  REG EQUATES
&REGS.1  EQU   1
&REGS.2  EQU   2
&REGS.3  EQU   3
&REGS.4  EQU   4
&REGS.5  EQU   5
&REGS.6  EQU   6
&REGS.7  EQU   7
&REGS.8  EQU   8
&REGS.9  EQU   9
&REGS.10 EQU   10
&REGS.11 EQU   11
&REGS.12 EQU   12
&REGS.13 EQU   13
&REGS.14 EQU   14
&REGS.15 EQU   15
&REGS.A  EQU   10
&REGS.B  EQU   11
&REGS.C  EQU   12
&REGS.D  EQU   13
&REGS.E  EQU   14
&REGS.F  EQU   15
&REGS.LINK EQU &LINK
         MEND
         MACRO
&NAME    GETOUT
         GBLC  &COMEIN
&NAME    B     &COMEIN.+4          BRANCH TO EXIT CODE IN COMEIN MACRO
         MEND
         PRINT  NOGEN
MURPHY   COMEIN
         L     R1,0(R1)               POINT TO PARM
         CLC   0(2,R1),=H'0'          Q. ANY PARM
         BE    STCK                   A. NO
         CLC   2(6,R1),=C'TESTIT'     Q. IS PARM TESTIT
         BNE   STCK                   A. YES
         SPACE 1
         MVI   TESTIT+1,X'00'         SET TEST SWITCH
         LA    R10,0                  FORCE 1ST ENTRY
         LA    R12,MLTBL              POINT TO 1ST MSG ADDR
         B     SETPTR
STCK     STCK  DWORD
         SR    R10,R10
         ICM   R11,7,DWORD+2          GET PART OF CLOCK
         LA    R11,0(R11)             PURIFY IT
         SPACE 1
         D     R10,=A((ML00000-MLTBL)/4)  DIVIDE BY NUMBER OF ENTRIES
         SLL   R10,2                  MULT REMAINDER BY 4
SETPTR   LA    R9,MLTBL(R10)          POINT TO MSG ADDRESS
         L     R8,0(R9)               GET THE MSG ADDRESS
         LA    R7,75                  STD MSG LENGTH
         B     TPUTLOOK
TPUTLOOK CLI   0(R8),X'FE'            Q. ANY MSG TO PUT OUT
         BE    TESTIT                 A. NO
         PRINT  GEN
         TPUT  (R8),(R7),R
         AR    R8,R7                  INDEX TO NEXT LINE
         B     TPUTLOOK
TESTIT   B     ENDIT
         LA    R12,4(R12)
         C     R12,=A(ML00000)        Q. END OF MSG LIST
         BE    ENDIT                  A. YES
         LA    R10,4(R10)             BUMP INDEX
         LR    R1,R10
         SRL   R1,2                   DIVIDE BY 4
         CVD   R1,DWORD               MAKE IT PACKED
         UNPK  WORK,DWORD
         OI    WORK+4,X'F0'           REMOVE SIGN
         TPUT  MSG#,L'MSG#
         B     SETPTR                 AND LOOP
ENDIT    EQU   *
         GETOUT
DWORD    DC    D'0'
MSG#     DS    0CL7
         DC    C'ML'
WORK     DC    CL5' '
         LTORG
         SPACE 1
MLTBL    DC    A(ML00000)
         DC    A(ML00001)
         DC    A(ML00002)
         DC    A(ML00003)
         DC    A(ML00004)
         DC    A(ML00005)
         DC    A(ML00006)
         DC    A(ML00007)
         DC    A(ML00008)
         DC    A(ML00009)
         DC    A(ML00010)
         DC    A(ML00011)
         DC    A(ML00012)
         DC    A(ML00013)
         DC    A(ML00014)
         DC    A(ML00015)
         DC    A(ML00016)
         DC    A(ML00017)
         DC    A(ML00018)
         DC    A(ML00019)
         DC    A(ML00020)
         DC    A(ML00021)
         DC    A(ML00022)
         DC    A(ML00023)
         DC    A(ML00024)
         DC    A(ML00025)
         DC    A(ML00026)
         DC    A(ML00027)
         DC    A(ML00028)
         DC    A(ML00029)
         DC    A(ML00030)
         DC    A(ML00031)
         DC    A(ML00032)
         DC    A(ML00033)
         DC    A(ML00034)
         DC    A(ML00035)
         DC    A(ML00036)
         DC    A(ML00037)
         DC    A(ML00038)
         DC    A(ML00039)
         DC    A(ML00040)
         DC    A(ML00041)
         DC    A(ML00042)
         DC    A(ML00043)
         DC    A(ML00044)
         DC    A(ML00045)
         DC    A(ML00046)
         DC    A(ML00047)
         DC    A(ML00048)
         DC    A(ML00049)
         DC    A(ML00050)
         DC    A(ML00051)
         DC    A(ML00052)
         DC    A(ML00053)
         DC    A(ML00054)
         DC    A(ML00055)
         DC    A(ML00056)
         DC    A(ML00057)
         DC    A(ML00058)
         DC    A(ML00059)
         DC    A(ML00060)
         DC    A(ML00061)
         DC    A(ML00062)
         DC    A(ML00063)
         DC    A(ML00064)
         DC    A(ML00065)
         DC    A(ML00066)
         DC    A(ML00067)
         DC    A(ML00068)
         DC    A(ML00069)
         DC    A(ML00070)
         DC    A(ML00071)
         DC    A(ML00072)
         DC    A(ML00073)
         DC    A(ML00074)
         DC    A(ML00075)
         DC    A(ML00076)
         DC    A(ML00077)
         DC    A(ML00078)
         DC    A(ML00079)
         DC    A(ML00080)
         DC    A(ML00081)
         DC    A(ML00082)
         DC    A(ML00083)
         DC    A(ML00084)
         DC    A(ML00085)
         DC    A(ML00086)
         DC    A(ML00087)
         DC    A(ML00088)
         DC    A(ML00089)
         DC    A(ML00090)
         DC    A(ML00091)
         DC    A(ML00092)
         DC    A(ML00093)
         DC    A(ML00094)
         DC    A(ML00095)
         DC    A(ML00096)
         DC    A(ML00097)
         DC    A(ML00098)
         DC    A(ML00099)
         DC    A(ML00100)
         DC    A(ML00101)
         DC    A(ML00102)
         DC    A(ML00103)
         DC    A(ML00104)
         DC    A(ML00105)
         DC    A(ML00106)
         DC    A(ML00107)
         DC    A(ML00108)
         DC    A(ML00109)
         DC    A(ML00110)
         DC    A(ML00111)
         DC    A(ML00112)
         DC    A(ML00113)
         DC    A(ML00114)
         DC    A(ML00115)
         DC    A(ML00116)
         DC    A(ML00117)
         DC    A(ML00118)
         DC    A(ML00119)
         DC    A(ML00120)
         DC    A(ML00121)
         DC    A(ML00122)
         DC    A(ML00123)
         DC    A(ML00124)
         DC    A(ML00125)
         DC    A(ML00126)
         DC    A(ML00127)
         DC    A(ML00128)
         DC    A(ML00129)
         DC    A(ML00130)
         DC    A(ML00131)
         DC    A(ML00132)
         DC    A(ML00133)
         DC    A(ML00134)
         DC    A(ML00135)
         DC    A(ML00136)
         DC    A(ML00137)
         DC    A(ML00138)
         DC    A(ML00139)
         DC    A(ML00140)
         DC    A(ML00141)
         DC    A(ML00142)
         DC    A(ML00143)
         DC    A(ML00144)
         DC    A(ML00145)
         DC    A(ML00146)
         DC    A(ML00147)
         DC    A(ML00148)
         DC    A(ML00149)
         DC    A(ML00150)
         DC    A(ML00151)
         DC    A(ML00152)
         DC    A(ML00153)
         DC    A(ML00154)
         DC    A(ML00155)
         DC    A(ML00156)
         DC    A(ML00157)
         DC    A(ML00158)
         DC    A(ML00159)
         DC    A(ML00160)
         DC    A(ML00161)
         DC    A(ML00162)
         DC    A(ML00163)
         DC    A(ML00164)
         DC    A(ML00165)
         DC    A(ML00166)
         DC    A(ML00167)
         DC    A(ML00168)
         DC    A(ML00169)
         DC    A(ML00170)
         DC    A(ML00171)
         DC    A(ML00172)
         DC    A(ML00173)
         DC    A(ML00174)
         DC    A(ML00175)
         DC    A(ML00176)
         DC    A(ML00177)
         DC    A(ML00178)
         DC    A(ML00179)
         DC    A(ML00180)
         DC    A(ML00181)
         DC    A(ML00182)
         DC    A(ML00183)
         DC    A(ML00184)
         DC    A(ML00185)
         DC    A(ML00186)
         DC    A(ML00187)
         DC    A(ML00188)
         DC    A(ML00189)
         DC    A(ML00190)
         DC    A(ML00191)
         DC    A(ML00192)
         DC    A(ML00193)
         DC    A(ML00194)
         DC    A(ML00195)
         DC    A(ML00196)
         DC    A(ML00197)
         DC    A(ML00198)
         DC    A(ML00199)
         DC    A(ML00200)
         DC    A(ML00201)
         DC    A(ML00202)
         DC    A(ML00203)
         DC    A(ML00204)
         DC    A(ML00205)
         DC    A(ML00206)
         DC    A(ML00207)
         DC    A(ML00208)
         DC    A(ML00209)
         DC    A(ML00210)
         DC    A(ML00211)
         DC    A(ML00212)
         DC    A(ML00213)
         DC    A(ML00214)
         DC    A(ML00215)
         DC    A(ML00216)
         DC    A(ML00217)
         DC    A(ML00218)
         DC    A(ML00219)
         DC    A(ML00220)
         DC    A(ML00221)
         DC    A(ML00222)
         DC    A(ML00223)
         DC    A(ML00224)
         DC    A(ML00225)
         DC    A(ML00226)
         DC    A(ML00227)
         DC    A(ML00228)
         DC    A(ML00229)
         DC    A(ML00230)
         DC    A(ML00231)
         DC    A(ML00232)
         DC    A(ML00233)
         DC    A(ML00234)
         DC    A(ML00235)
         DC    A(ML00236)
         DC    A(ML00237)
         DC    A(ML00238)
         DC    A(ML00239)
         DC    A(ML00240)
         DC    A(ML00241)
         DC    A(ML00242)
         DC    A(ML00243)
         DC    A(ML00244)
         DC    A(ML00245)
         DC    A(ML00246)
         DC    A(ML00247)
         DC    A(ML00248)
         DC    A(ML00249)
         DC    A(ML00250)
         DC    A(ML00251)
         DC    A(ML00252)
         DC    A(ML00253)
         DC    A(ML00254)
         DC    A(ML00255)
         DC    A(ML00256)
         DC    A(ML00257)
         DC    A(ML00258)
         DC    A(ML00259)
         DC    A(ML00260)
         DC    A(ML00261)
         DC    A(ML00262)
         DC    A(ML00263)
         DC    A(ML00264)
         DC    A(ML00265)
         DC    A(ML00266)
         DC    A(ML00267)
         DC    A(ML00268)
         DC    A(ML00269)
         DC    A(ML00270)
         DC    A(ML00271)
         DC    A(ML00272)
         DC    A(ML00273)
         DC    A(ML00274)
         DC    A(ML00275)
         DC    A(ML00276)
         DC    A(ML00277)
         DC    A(ML00278)
         DC    A(ML00279)
         DC    A(ML00280)
         DC    A(ML00281)
         DC    A(ML00282)
         DC    A(ML00283)
         DC    A(ML00284)
         DC    A(ML00285)
         DC    A(ML00286)
         DC    A(ML00287)
         DC    A(ML00288)
         DC    A(ML00289)
         DC    A(ML00290)
         DC    A(ML00291)
         DC    A(ML00292)
         DC    A(ML00293)
         DC    A(ML00294)
         DC    A(ML00295)
         DC    A(ML00296)
         DC    A(ML00297)
         DC    A(ML00298)
         DC    A(ML00299)
         DC    A(ML00300)
         DC    A(ML00301)
         DC    A(ML00302)
         DC    A(ML00303)
         DC    A(ML00304)
         DC    A(ML00305)
         DC    A(ML00306)
         DC    A(ML00307)
         DC    A(ML00308)
         DC    A(ML00309)
         DC    A(ML00310)
         DC    A(ML00311)
         DC    A(ML00312)
         DC    A(ML00313)
         DC    A(ML00314)
         DC    A(ML00315)
         DC    A(ML00316)
         DC    A(ML00317)
         DC    A(ML00318)
         DC    A(ML00319)
         DC    A(ML00320)
         DC    A(ML00321)
         DC    A(ML00322)
         DC    A(ML00323)
         DC    A(ML00324)
         DC    A(ML00325)
         DC    A(ML00326)
         DC    A(ML00327)
         DC    A(ML00328)
         DC    A(ML00329)
         DC    A(ML00330)
         DC    A(ML00331)
         DC    A(ML00332)
         DC    A(ML00333)
         DC    A(ML00334)
         DC    A(ML00335)
         DC    A(ML00336)
         DC    A(ML00337)
         DC    A(ML00338)
         DC    A(ML00339)
         DC    A(ML00340)
         DC    A(ML00341)
         DC    A(ML00342)
         DC    A(ML00343)
         DC    A(ML00344)
         DC    A(ML00345)
         DC    A(ML00346)
         DC    A(ML00347)
         DC    A(ML00348)
         DC    A(ML00349)
         DC    A(ML00350)
         DC    A(ML00351)
         DC    A(ML00352)
         DC    A(ML00353)
         DC    A(ML00354)
         DC    A(ML00355)
         DC    A(ML00356)
         DC    A(ML00357)
         DC    A(ML00358)
         DC    A(ML00359)
         DC    A(ML00360)
         DC    A(ML00361)
         DC    A(ML00362)
         DC    A(ML00363)
         DC    A(ML00364)
         DC    A(ML00365)
         DC    A(ML00366)
         DC    A(ML00367)
         DC    A(ML00368)
         DC    A(ML00369)
         DC    A(ML00370)
         DC    A(ML00371)
         DC    A(ML00372)
         DC    A(ML00373)
         DC    A(ML00374)
         DC    A(ML00375)
***********************************************************************
*                                                                     *
*  RULES:                                                             *
*    1) DOUBLE QUOTES (") CAN BE USED AT ANY TIME IN THE TEXT         *
*    2) IF A SINGLE QUOTE (') IS USED IN THE TEXT THEN YOU MUST       *
*       USE TWO SINGLE QUOTES ('') TO GET ONE QUOTE.                  *
*    3) NO MORE THAN 75 CHARACTERS CAN BE DISPLAYED ON A LINE.        *
*    4) USE MASK1 AND MASK2 FOR POSITIONING.                          *
*                                                                     *
*                                                                     *
* MASK1    ....+....1....+....2....+....3....+....4....+....5....+....6
* MASK2        ....+....7....+
***********************************************************************
ML00000  EQU   *
  DC  CL75'WHEN THINGS ARE GOING WELL, SOMEONE WILL INEVITABLY'
  DC  CL75'EXPERIMENT DETRIMENTALLY.'
  DC  X'FE'
ML00001  EQU   *
  DC  CL75'IF NOT CONTROLLED, WORK WILL FLOW TO THE COMPETENT'
  DC  CL75'MAN UNTIL HE SUBMERGES'
  DC  X'FE'
ML00002  EQU   *
  DC  CL75'THE DEFICIENCY WILL NEVER SHOW ITSELF DURING THE TEST RUNS'
  DC  X'FE'
ML00003  EQU   *
  DC  CL75'THE LAGGING ACTIVITY IN A PROJECT WILL INVARIABLY BE FOUND'
  DC  CL75'IN THE AREA WHERE THE HIGHEST OVERTIME RATES LIE WAITING'
  DC  X'FE'
ML00004  EQU   *
  DC  CL75'IT IS IMPOSSIBLE TO BUILD A FOOL PROOF SYSTEM;'
  DC  CL75'BECAUSE FOOLS ARE SO INGENIOUS'
  DC  X'FE'
ML00005  EQU   *
  DC  CL75'TALENT IN STAFF WORK OR SALES WILL CONTINUALLY BE'
  DC  CL75'INTERPRETED AS MANAGERIAL ABILITY.'
  DC  X'FE'
ML00006  EQU   *
  DC  CL75'INFORMATION TRAVELS MORE SURELY TO THOSE WITH A'
  DC  CL75'LESSER NEED TO KNOW.'
  DC  X'FE'
ML00007  EQU   *
  DC  CL75'THE "THINK POSITIVE" LEADER TENDS TO LISTEN TO HIS'
  DC  CL75'SUBORDINATE''S PREMONITIONS ONLY DURING THE POSTMORTEMS.'
  DC  X'FE'
ML00008  EQU   *
  DC  CL75'AN ORIGINAL IDEA CAN NEVER EMERGE FROM COMMITTEE'
  DC  CL75'IN ITS ORIGINAL FORM.'
  DC  X'FE'
ML00009  EQU   *
  DC  CL75'NO GOOD DEED GOES UNPUNISHED.'
  DC  X'FE'
ML00010  EQU   *
  DC  CL75'WHEN THE PRODUCT IS DESTINED TO FAIL, THE DELIVERY SYSTEM'
  DC  CL75'WILL PERFORM PERFECTLY.'
  DC  X'FE'
ML00011  EQU   *
  DC  CL75'CLEARLY STATED INSTRUCTIONS WILL CONSISTENTLY PRODUCE'
  DC  CL75'MULTIPLE INTERPRETATIONS'
  DC  X'FE'
ML00012  EQU   *
  DC  CL75'THE CRUCIAL MEMORANDUM WILL BE SNARED IN THE OUT-BASKET BY'
  DC  CL75'THE PAPER CLIP OF THE OVERLYING MEMO AND GO TO FILE.'
  DC  X'FE'
ML00013  EQU   *
  DC  CL75'ON SUCCESSIVE CHARTS OF THE SAME ORGANIZATION THE NUMBER OF'
  DC  CL75'BOXES WILL NEVER DECREASE.'
  DC  X'FE'
ML00014  EQU   *
  DC  CL75'IT IS OK TO BE IGNORANT IN SOME AREAS,'
  DC  CL75'BUT SOME PEOPLE ABUSE THE PRIVILEGE.'
  DC  X'FE'
ML00015  EQU   *
  DC  CL75'EVERYONE BREAKS MORE THAN THE SEVEN-YEAR-BAD-LUCK ALLOTMENT'
  DC  CL75'TO COVER ROTTEN LUCK THROUGHOUT AN ENTIRE LIFETIME.'
  DC  X'FE'
ML00016  EQU   *
  DC  CL75'SUCCESS CAN BE INSURED ONLY BY DEVISING A DEFENSE AGAINST'
  DC  CL75'FAILURE OF THE CONTINGENCY PLAN.'
  DC  X'FE'
ML00017  EQU   *
  DC  CL75'ADDING MANPOWER TO A LATE SOFTWARE PRODUCT MAKES IT LATER'
  DC  X'FE'
ML00018  EQU   *
  DC  CL75'PERFORMANCE IS DIRECTLY AFFECTED BY THE PERVERSITY OF'
  DC  CL75'INANIMATE OBJECTS'
  DC  X'FE'
ML00019  EQU   *
  DC  CL75'LEAKPROOF SEALS --- WILL.'
  DC  X'FE'
ML00020  EQU   *
  DC  CL75'NEVER OFFEND PEOPLE WITH STYLE'
  DC  CL75'WHEN YOU CAN OFFEND THEM WITH SUBSTANCE.'
  DC  X'FE'
ML00021  EQU   *
  DC  CL75'OUR CUSTOMERS PAPERWORK IS PROFIT'
  DC  CL75'OUR OWN PAPERWORK IS LOSS.'
  DC  X'FE'
ML00022  EQU   *
  DC  CL75'AT ANY LEVEL OF TRAFFIC, ANY DELAY IS INTOLERABLE.'
  DC  X'FE'
ML00023  EQU   *
  DC  CL75'AS THE ECONOMY GETS BETTER, EVERYTHING ELSE GETS WORSE.'
  DC  X'FE'
ML00024  EQU   *
  DC  CL75'THIS SPACE FOR RENT'
  DC  X'FE'
ML00025  EQU   *
  DC  CL75'THE MORE DIRECTIVES YOU ISSUE TO SOLVE A PROBLEM,'
  DC  CL75'THE WORSE IT GETS.'
  DC  X'FE'
ML00026  EQU   *
  DC  CL75'COP-OUT NUMBER 1.'
  DC  CL75'YOU SHOULD HAVE SEEN IT WHEN I GOT IT.'
  DC  X'FE'
ML00027  EQU   *
  DC  CL75'WHEN YOU''RE UP TO YOUR ASS IN ALLIGATORS, IT IS'
  DC  CL75'DIFFICULT TO KEEP YOUR MIND ON THE FACT THAT YOUR PRIMARY'
  DC  CL75'OBJECTIVE WAS TO DRAIN THE SWAMP.'
  DC  X'FE'
ML00028  EQU   *
  DC  CL75'THE ROAD TO HELL IS PAVED WITH GOOD INTENTIONS'
  DC  CL75'AND LITTERED WITH SLOPPY ANALYSES!'
  DC  X'FE'
ML00029  EQU   *
  DC  CL75'SELF STARTERS --- WON''T.'
  DC  X'FE'
ML00030  EQU   *
  DC  CL75'IF THE ASSUMPTIONS ARE WRONG,'
  DC  CL75'THE CONCLUSIONS AREN''T LIKELY TO BE VERY GOOD.'
  DC  X'FE'
ML00031  EQU   *
  DC  CL75'THE ORGANIZATION OF ANY PROGRAM REFLECTS THE ORGANIZATION'
  DC  CL75'OF THE PEOPLE WHO DEVELOPED IT.'
  DC  X'FE'
ML00032  EQU   *
  DC  CL75'THERE IS NO SUCH THNG AS A "DIRTY CAPITALIST",'
  DC  CL75'ONLY A CAPITALIST.'
  DC  X'FE'
ML00033  EQU   *
  DC  CL75'ANYTHING IS POSSIBLE, BUT NOTHING IS EASY.'
  DC  X'FE'
ML00034  EQU   *
  DC  CL75'THE MEEK WILL INHERIT THE EARTH'
  DC  CL75'AFTER THE REST OF US GO TO THE STARS.'
  DC  X'FE'
ML00035  EQU   *
  DC  CL75'CAPITALISM CAN EXIST IN ONE OF ONLY TWO STATES:'
  DC  CL75'WELFARE OR WARFARE.'
  DC  X'FE'
ML00036  EQU   *
  DC  CL75'HISTORY PROVES NOTHING.'
  DC  X'FE'
ML00037  EQU   *
  DC  CL75'A LOT OF WHAT APPEARS TO BE PROGRESS IS JUST SO MUCH'
  DC  CL75'TECHNOLOGICAL ROCCOCO.'
  DC  X'FE'
ML00038  EQU   *
  DC  CL75'A LITTLE HUMILITY IS ARROGANCE'
  DC  X'FE'
ML00039  EQU   *
  DC  CL75'INTERCHANGEABLE PARTS --- WON''T.'
  DC  X'FE'
ML00040  EQU   *
  DC  CL75'ANY TIME YOU WISH TO DEMONSTRATE SOMETHING, THE NUMBER OF'
  DC  CL75'FAULTS IS PROPORTIONAL TO THE NUMBER OF VIEWERS.'
  DC  X'FE'
ML00041  EQU   *
  DC  CL75'ALL AMERICAN CARS ARE BASICALLY CHEVROLETS.'
  DC  X'FE'
ML00042  EQU   *
  DC  CL75'A COUP THAT IS KNOWN IN ADVANCE IS A COUP THAT DOES NOT'
  DC  CL75'TAKE PLACE.'
  DC  X'FE'
ML00043  EQU   *
  DC  CL75'NO EXPERIMENT IS EVER A COMPLETE FAILURE.'
  DC  CL75'IT CAN ALWAYS BE USED AS A BAD EXAMPLE.'
  DC  X'FE'
ML00044  EQU   *
  DC  CL75'DESPITE THE SIGN THAT SAYS "WET PAINT",'
  DC  CL75'PLEASE DON''T'
  DC  X'FE'
ML00045  EQU   *
  DC  CL75'EVERYTHING TASTES MORE OR LESS LIKE CHICKEN.'
  DC  X'FE'
ML00046  EQU   *
  DC  CL75'PEOPLE DON''T CHANGE; THEY ONLY BECOME MORE SO.'
  DC  X'FE'
ML00047  EQU   *
  DC  CL75'I FINALLY GOT IT ALL TOGETHER...'
  DC  CL75'BUT I FORGOT WHERE I PUT IT.'
  DC  X'FE'
ML00048  EQU   *
  DC  CL75'IF YOUR NEXT POT OF CHILI TASTES BETTER, IT PROBABLY IS'
  DC  CL75'BECAUSE OF SOMETHING LEFT OUT, RATHER THAN ADDED.'
  DC  X'FE'
ML00049  EQU   *
  DC  CL75'THERE IS ALWAYS ONE MORE BUG.'
  DC  X'FE'
ML00050  EQU   *
  DC  CL75'THE BIG GUYS ALWAYS WIN.'
  DC  X'FE'
ML00051  EQU   *
  DC  CL75'NOTHING IS EVER ACCOMPLISHED BY A REASONABLE MAN.'
  DC  X'FE'
ML00052  EQU   *
  DC  CL75'ANY SUFFICIENTLY ADVANCED TECHNOLOGY IS'
  DC  CL75'INDISTINGUISHABLE FROM MAGIC.'
  DC  X'FE'
ML00053  EQU   *
  DC  CL75'IT''S ALWAYS DARKEST JUST BEFORE THE LIGHTS GO OUT.'
  DC  X'FE'
ML00054  EQU   *
  DC  CL75'IT IS BETTER TO BE PART OF THE IDLE RICH CLASS'
  DC  CL75'THAN BE PART OF THE IDLE POOR CLASS.'
  DC  X'FE'
ML00055  EQU   *
  DC  CL75'EACH PROBLEM SOLVED INTRODUCES A NEW UNSOLVED PROBLEM.'
  DC  X'FE'
ML00056  EQU   *
  DC  CL75'FOR EVERY CREDIBILITY GAP THERE IS A GULLIBILITY FILL.'
  DC  X'FE'
ML00057  EQU   *
  DC  CL75'IF YOU HAVE SOMETHING TO DO, AND YOU PUT IT OFF LONG ENOUGH'
  DC  CL75'CHANCES ARE SOMEONE ELSE WILL DO IT FOR YOU.'
  DC  X'FE'
ML00058  EQU   *
  DC  CL75'EVERYBODY''S GOTTA BE SOMEPLACE.'
  DC  X'FE'
ML00059  EQU   *
  DC  CL75'NATURE IS A MOTHER.'
  DC  X'FE'
ML00060  EQU   *
  DC  CL75'IF YOU''VE GOT THEM BY THE BALLS,'
  DC  CL75'THEIR HEARTS AND MINDS WILL FOLLOW.'
  DC  X'FE'
ML00061  EQU   *
  DC  CL75'PEOPLE WILL ACCEPT YOUR IDEA MUCH MORE READILY IF YOU TELL'
  DC  CL75'THEM BENJAMIN FRANKLIN SAID IT FIRST.'
  DC  X'FE'
ML00062  EQU   *
  DC  CL75'IF AT FIRST YOU DON''T SUCCEED, TRANSFORM YOUR DATASET.'
  DC  X'FE'
ML00063  EQU   *
  DC  CL75'ANY GIVEN PROGRAM, WHEN RUNNING, IS OBSOLETE.'
  DC  X'FE'
ML00064  EQU   *
  DC  CL75'ANY GIVEN PROGRAM COST MORE AND TAKE LONGER.'
  DC  X'FE'
ML00065  EQU   *
  DC  CL75'IF A PROGRAM IS USEFUL, IT WILL BE CHANGED.'
  DC  X'FE'
ML00066  EQU   *
  DC  CL75'IF A PROGRAM IS USELESS, IT WILL BE DOCUMENTED.'
  DC  X'FE'
ML00067  EQU   *
  DC  CL75'ANY GIVEN PROGRAM WILL EXPAND TO FILL ALL AVAILABLE MEMORY.'
  DC  X'FE'
ML00068  EQU   *
  DC  CL75'THE VALUE OF A PROGRAM IS PROPORTIONAL'
  DC  CL75'TO THE WEIGHT OF ITS OUTPUT.'
  DC  X'FE'
ML00069  EQU   *
  DC  CL75'DON''T MESS WITH MRS. MURPHY!'
  DC  X'FE'
ML00070  EQU   *
  DC  CL75'PROGRAM COMPLEXITY GROWS UNTIL IT EXCEEDS THE CAPABILITY'
  DC  CL75'OF THE PROGRAMMER WHO MUST MAINTAIN IT.'
  DC  X'FE'
ML00071  EQU   *
  DC  CL75'MAKE IT POSSIBLE FOR PROGRAMMERS TO WRITE PROGRAMS'
  DC  CL75'IN ENGLISH AND YOU WILL FIND THAT PROGRAMMERS CANNOT'
  DC  CL75'WRITE IN ENGLISH.'
  DC  X'FE'
ML00072  EQU   *
  DC  CL75'WHEN MORE AND MORE PEOPLE ARE THROWN OUT OF WORK'
  DC  CL75'UNEMPLOYMENT RESULTS.'
  DC  X'FE'
ML00073  EQU   *
  DC  CL75'IF YOU CAN''T MEASURE IT, I''M NOT INTERESTED'
  DC  X'FE'
ML00074  EQU   *
  DC  CL75'THE BEST WAY TO LIE IS TO TELL THE TRUTH.....'
  DC  CL75'CAREFULLY EDITED TRUTH.'
  DC  X'FE'
ML00075  EQU   *
  DC  CL75'THERE ARE THREE WAYS TO GET THINGS DONE'
  DC  CL75'DO IT YOURSELF'
  DC  CL75'HIRE SOMEONE TO DO IT OR'
  DC  CL75'FORBID YOUR KIDS TO DO IT.'
  DC  X'FE'
ML00076  EQU   *
  DC  CL75'I THINK ... THEREFORE I AM CONFUSED'
  DC  X'FE'
ML00077  EQU   *
  DC  CL75'A FAIL-SAFE CIRCUIT WILL DESTROY OTHERS.'
  DC  X'FE'
ML00078  EQU   *
  DC  CL75'HISTORY REPEATS ITSELF.'
  DC  CL75'THAT''S ONE OF THE THINGS WRONG WITH HISTORY'
  DC  X'FE'
ML00079  EQU   *
  DC  CL75'90% OF EVERYTHING IS CRUD.'
  DC  X'FE'
ML00080  EQU   *
  DC  CL75'NATURE WILL TELL YOU A DIRECT LIE IF SHE CAN.'
  DC  X'FE'
ML00081  EQU   *
  DC  CL75'THOSE WITH THE BEST ADVICE OFFER NO ADVICE.'
  DC  X'FE'
ML00082  EQU   *
  DC  CL75'SPEAK SOFTLY AND OWN A BIG, MEAN DOBERMAN.'
  DC  X'FE'
ML00083  EQU   *
  DC  CL75'DEMOCRACY IS THAT FORM OF GOVERNMENT WHERE'
  DC  CL75'EVERYBODY GETS WHAT THE MAJORITY DESERVES.'
  DC  X'FE'
ML00084  EQU   *
  DC  CL75'IF YOU''RE WORRIED ABOUT BEING CRAZY,'
  DC  CL75'DON''T BE OVERLY CONCERNED:'
  DC  CL75'IF YOU WERE, YOU WOULD THINK YOU WERE SANE.'
  DC  X'FE'
ML00085  EQU   *
  DC  CL75'PILLS TO BE TAKEN IN TWOS ALWAYS COME'
  DC  CL75'OUT OF THE BOTTLE IN THREES.'
  DC  X'FE'
ML00086  EQU   *
  DC  CL75'FLYNN IS DEAD'
  DC  CL75'TRON IS DEAD'
  DC  CL75'LONG LIVE THE MCP.'
  DC  X'FE'
ML00087  EQU   *
  DC  CL75'WHY WORRY ABOUT TOMORROW? WE MAY NOT MAKE IT THROUGH TODAY!'
  DC  X'FE'
ML00088  EQU   *
  DC  CL75'REAL PROGRAMMERS DON''T NUMBER PARAGRAPH NAMES'
  DC  CL75'CONSECUTIVELY.'
  DC  X'FE'
ML00089  EQU   *
  DC  CL75'IF YOU''RE FEELING GOOD, DON''T WORRY,'
  DC  CL75'YOU''LL GET OVER IT.'
  DC  X'FE'
ML00090  EQU   *
  DC  CL75'REAL PROGRAMMERS DON''T GRUMBLE ABOUT THE DISADVANTAGES'
  DC  CL75'OF COBOL WHEN THEY DON''T KNOW ANY OTHER LANGUAGE.'
  DC  X'FE'
ML00091  EQU   *
  DC  CL75'DEFINITION OF AN ELEPHANT:'
  DC  CL75'A MOUSE BUILT TO GOVERMENT SPECIFICATIONS'
  DC  X'FE'
ML00092  EQU   *
  DC  CL75'REAL PROGRAMMERS ARE KIND TO ROOKIES.'
  DC  X'FE'
ML00093  EQU   *
  DC  CL75'REAL PROGRAMMERS DON''T NOTCH THEIR DESKS FOR EACH'
  DC  CL75'COMPLETED SERVICE REQUEST.'
  DC  X'FE'
ML00094  EQU   *
  DC  CL75'YOU DON''T HAVE TO BE CRAZY TO WORK HERE'
  DC  CL75'BUT IT SURE HELPS!!!!!!!'
  DC  X'FE'
ML00095  EQU   *
  DC  CL75'REAL PROGRAMMERS DON''T ANNOUNCE HOW MANY TIMES THE'
  DC  CL75'OPERATIONS DEPARTMENT CALLED THEM LAST NIGHT.'
  DC  X'FE'
ML00096  EQU   *
  DC  CL75'A DAY WITHOUT SUNSHINE ....'
  DC  CL75'IS LIKE ... NIGHT!'
  DC  X'FE'
ML00097  EQU   *
  DC  CL75'REAL PROGRAMMERS ARE SECURE ENOUGH TO WRITE READABLE CODE,'
  DC  CL75'WHICH THEY THEN SELF-RIGHTEOUSLY REFUSE TO EXPLAIN.'
  DC  X'FE'
ML00098  EQU   *
  DC  CL75'REAL PROGRAMMERS DON''T PLAY VIDEO GAMES, THEY WRITE   THEM.X
               '
  DC  X'FE'
ML00099  EQU   *
  DC  CL75'ANYTHING THAT CAN GO WRONG, WILL GO WRONG.'
  DC  X'FE'
ML00100  EQU   *
  DC  CL75'REAL PROGRAMMERS UNDERSTAND PASCAL.'
  DC  X'FE'
ML00101  EQU   *
  DC  CL75'REAL PROGRAMMERS KNOW IT''S NOT OPERATIONS '
  DC  CL75'FAULT IF THEIR JOBS GO INTO "HOGS."'
  DC  X'FE'
ML00102  EQU   *
  DC  CL75'REAL PROGRAMMERS DO NOT EAT BREAKFAST FROM THE'
  DC  CL75'VENDING MACHINES'
  DC  X'FE'
ML00103  EQU   *
  DC  CL75'REAL PROGRAMMERS PUNCH UP THEIR OWN PROGRAMS.'
  DC  X'FE'
ML00104  EQU   *
  DC  CL75'WHEN LIFE HANDS YOU A LEMON'
  DC  CL75'MAKE LEMONADE'
  DC  X'FE'
ML00105  EQU   *
  DC  CL75'REAL PROGRAMMERS HAVE READ THE STANDARDS MANUAL'
  DC  CL75'BUT WON''T ADMIT IT'
  DC  X'FE'
ML00106  EQU   *
  DC  CL75'REAL PROGRAMMERS DON''T ADVERTISE THEIR HANGOVERS.'
  DC  X'FE'
ML00107  EQU   *
  DC  CL75'REAL PROGRAMMERS DON''T DRESS FOR SUCCESS UNLESS'
  DC  CL75'THEY ARE TRYING TO CONVINCE OTHERS THAT THEY ARE'
  DC  CL75'GOING ON INTERVIEWS.'
  DC  X'FE'
ML00108  EQU   *
  DC  CL75'REAL PROGRAMMERS DO NOT PRACTICE FOUR-SYLLABLE WORDS BEFORE'
  DC  CL75'WALKTHROUGHS.'
  DC  X'FE'
ML00109  EQU   *
  DC  CL75'ALL WARRANTIES EXPIRE UPON PAYMENT OF INVOICE.'
  DC  X'FE'
ML00110  EQU   *
  DC  CL75'REAL PROGRAMMERS ARGUE WITH THE SYSTEMS ANALYST AS A'
  DC  CL75'MATTER OF PRINCIPLE.'
  DC  X'FE'
ML00111  EQU   *
  DC  CL75'THE FINAL TEST IS WHEN IT GOES PRODUCTION ...'
  DC  CL75'W H E N I T  G O E S   P R O D U C T I O N  ...'
  DC  CL75'W H E N     I  T     G  O  E  S     P  R  O  D  U  C  T'
  DC  CL75'W H  E   N       I   T       G   O   E   S       P   R   O'
  DC  X'FE'
ML00112  EQU   *
  DC  CL75'REAL PROGRAMMERS DRINK TOO MUCH COFFEE SO THAT THEY WILL'
  DC  CL75'ALWAYS SEEM TENSE AND OVERWORKED.'
  DC  X'FE'
ML00113  EQU   *
  DC  CL75'REAL PROGRAMMERS ALWAYS HAVE A BETTER IDEA.'
  DC  X'FE'
ML00114  EQU   *
  DC  CL75'ANYONE WHO FOLLOWS A CROWD WILL'
  DC  CL75'NEVER BE FOLLOWED BY A CROWD.'
  DC  X'FE'
ML00115  EQU   *
  DC  CL75'REAL PROGRAMMERS CAN DO OCTAL, HEXADECIMAL AND'
  DC  CL75'BINARY MATH IN THEIR HEADS.'
  DC  X'FE'
ML00116  EQU   *
  DC  CL75'REAL PROGRAMMERS DON''T WRITE MEMOS.'
  DC  X'FE'
ML00117  EQU   *
  DC  CL75'REAL PROGRAMMERS KNOW WHAT SAAD MEANS.'
  DC  X'FE'
ML00118  EQU   *
  DC  CL75'REAL PROGRAMMERS DO NOT UTTER PROFANITIES AT AN ELEVATED'
  DC  CL75'DECIBLE LEVEL.'
  DC  X'FE'
ML00119  EQU   *
  DC  CL75'WHERE YOU STAND ON AN ISSUE DEPENDS ON WHERE YOU SIT.'
  DC  X'FE'
ML00120  EQU   *
  DC  CL75'REAL PROGRAMMERS DO NOT APPLY DP TERMINOLOGY TO NON-DP'
  DC  CL75'SITUATIONS'
  DC  X'FE'
ML00121  EQU   *
  DC  CL75'I NO LONGER GET LOST IN THE SHUFFLE....'
  DC  CL75'I SHUFFLE ALONG WITH THE LOST'
  DC  X'FE'
ML00122  EQU   *
  DC  CL75'REAL PROGRAMMERS DO NOT READ BOOKS LIKE'
  DC  CL75'"EFFECTIVE LISTENING" AND "COMMUNICATION SKILLS".'
  DC  X'FE'
ML00123  EQU   *
  DC  CL75'REAL PROGRAMMERS PRINT ONLY CLEAN COMPILES,'
  DC  CL75'FIXING ALL ERRORS THROUGH THE TERMINAL.'
  DC  X'FE'
ML00124  EQU   *
  DC  CL75'THE EARLY WORM DESERVES THE BIRD'
  DC  X'FE'
ML00125  EQU   *
  DC  CL75'LEAD, FOLLOW, OR GET THE HELL OUT OF THE WAY!!'
  DC  X'FE'
ML00126  EQU   *
  DC  CL75'ALL GOOD THINGS MUST COME TO AN END.'
  DC  CL75'I WANT TO KNOW WHEN THEY START!'
  DC  X'FE'
ML00127  EQU   *
  DC  CL75'A DIPLOMAT IS SOMEONE WHO CAN TELL YOU TO GO TO HELL'
  DC  CL75'IN SUCH A WAY THAT YOU LOOK FORWARD TO THE TRIP.'
  DC  X'FE'
ML00128  EQU   *
  DC  CL75'BLESSED ARE THOSE WHO GO AROUND IN CIRCLES,'
  DC  CL75'FOR THEY SHALL BE KNOWN AS WHEELS.'
  DC  X'FE'
ML00129  EQU   *
  DC  CL75'NEVER EAT PRUNES WHEN YOU ARE FAMISHED.'
  DC  X'FE'
ML00130  EQU   *
  DC  CL75'KEEP EMOTIONALLY ACTIVE,'
  DC  CL75'CATER TO YOUR FAVORITE NEUROSIS.'
  DC  X'FE'
ML00131  EQU   *
  DC  CL75'A RACF PROTECTED DATASET IS INACCESSIBLE'
  DC  X'FE'
ML00132  EQU   *
  DC  CL75'RACF IS A FOUR LETTER WORD'
  DC  X'FE'
ML00133  EQU   *
  DC  CL75'YOU MAY BE RECOGNIZED SOON.'
  DC  CL75'HIDE!'
  DC  CL75'IF THEY FIND YOU, LIE.'
  DC  X'FE'
ML00134  EQU   *
  DC  CL75'YOU CAN PRAY HARD ENOUGH TO MAKE WATER RUN UPHILL'