         MACRO
&NAME    BEGIN &BASE=
&NAME    CSECT
&NAME    AMODE ANY
&NAME    RMODE ANY
         YREGS
         GBLA &WSLEN
         LCLC  &B(4),&C(4),&D,&E,&F,&G,&H,&I,&J,&K
         LCLA &VAR,&NCODE,&N
&VAR     SETA 1
         AIF  ('&BASE'(1,1) EQ '(').MULT
&B(1)    SETC '&BASE(&VAR)'
         AGO  .SETUP
.MULT    ANOP
&NCODE   SETA N'&BASE
.LOOP    AIF  (&VAR GT &NCODE).SETUP
&B(&VAR) SETC '&BASE(&VAR)'
&VAR     SETA &VAR+1
         AGO  .LOOP
.SETUP   ANOP
         USING *,R15                   BEGINING
         STM   R14,R12,12(R13)         STORE USER REGISTERS
&VAR     SETA  2
         DROP R15
         LR   &B(1),R15                GET FIRST
.LOOP2   AIF  (&VAR GT &NCODE).USING
         LA   &B(&VAR),4095(&B(&VAR-1))
         LA   &B(&VAR),1(,&B(&VAR))
&VAR     SETA &VAR+1
         AGO  .LOOP2
.USING   ANOP
&N       SETA  &NCODE-1
&VAR     SETA  1
.LOOP3   AIF   (&VAR GT &N).SETREG
&C(&VAR) SETC  ','
&VAR     SETA  &VAR+1
         AGO   .LOOP3
.SETREG  ANOP
&D       SETC  '&B(1)'
&E       SETC  '&C(1)'
&F       SETC  '&B(2)'
&G       SETC  '&C(2)'
&H       SETC  '&B(3)'
&I       SETC  '&C(3)'
&J       SETC  '&B(4)'
&K       SETC  '&C(4)'
         USING &NAME,&D&E&F&G&H&I&J&K
         STORAGE OBTAIN,LENGTH=&WSLEN
         ST    R13,4(,R1)              STORE BACK LINK
         LR    R13,R1                  POINT TO CURRENT
         ST    R13,8(,R13)             FORWARD LINK
         USING WSDSECT,R13
.FIN     ANOP
         MEND
