@BANDAID TITLE '@ B A N D A I D  ***  STAE FORMATTING SERVICE'
         MACRO ,
&NM      TRENT &TAB,&VAL,&OFF                           ADDED ON 86311
.*       THIS MACRO IS USED TO CREATE TRANSLATE AND TRANSLATE AND TEST
.*       TABLES IN COMPACT FASHION.
.*
         LCLC  &N
         LCLA  &I,&J
&J       SETA  N'&SYSLIST
         AIF   (&J EQ 0).ORG
         AIF   (&J LT 3).MEND
&N       SETC  '&NM'
&I       SETA  2
.LOOP    AIF   (&I GE &J).DONE
&I       SETA  &I+1
         AIF   ('&SYSLIST(&I)' EQ '').LOOP
         AIF   (N'&SYSLIST(&I) EQ 2).PAIR
         ORG   &TAB+&SYSLIST(&I)
&N       DC    AL1(&VAL)
&N       SETC  ''
         AGO   .LOOP
.PAIR    ORG   &TAB+&SYSLIST(&I,1)
&N       DC    (&SYSLIST(&I,2))AL1(&VAL)
&N       SETC  ''
         AGO   .LOOP
.DONE    AIF   ('&SYSLIST(&J)' EQ '').MEND
.ORG     ORG   ,
.MEND    MEND  ,
*----------------------------------------------------------------------
         MACRO ,
&NM      BAL#PROC &PROC
&NM      BAL   R14,&PROC     CALL SUBROUTINE
         MEND  ,
*----------------------------------------------------------------------
         MACRO ,
&NM      CAL#PROC &PROC
&NM      L     R15,=A(&PROC)
         BALR  R14,R15       CALL SUBROUTINE
         MEND  ,
*----------------------------------------------------------------------
         MACRO ,
&NAME    BEG#PROC &SAVE=YES
         GBLC  &#PROC
&#PROC   SETC  'IHB&SYSNDX'
         AIF   ('&SAVE' EQ 'NO').NOSAVE
DYNAM31  DSECT ,
&#PROC.S DS    2F                      SAVE AREA FOR R14 AND R10
@BANDAID CSECT ,                                                GP09255
&NAME    LR    R15,R10                 BASE REG
         STM   R14,R15,&#PROC.S        SAVE REGISTERS
         BALR  R10,0
         USING *,R10
         MEXIT ,
.NOSAVE  ANOP  ,
&NAME    DS    0H                                               GP09255
         USING *,R15
         MEND  ,
*----------------------------------------------------------------------
         MACRO ,
&NAME    END#PROC &RC=
         GBLC  &#PROC
&NAME    L     R14,&#PROC.S            RESTORE LINKAGE REGISTER
         L     R10,&#PROC.S+4          RESTORE BASE REGISTER
         BR    R14
         MEND  ,
*----------------------------------------------------------------------
         MACRO ,                                                  MACRO
&NAME   #S0C4  &ERRET,&PUSH                                       MACRO
         LCLC  &DD                                              GP09255
         AIF   ('&ERRET' EQ 'RESET').RESET                        MACRO
         AIF   ('&ERRET' EQ 'POP').POP                            MACRO
&DD      SETC  '(&ERRET-RETRY11)'                                 MACRO
         AIF   ('&PUSH' EQ 'PUSH').PUSH                           MACRO
&NAME    MVI   #RETRY+0,&DD/256
         MVI #RETRY+1,&DD-((&DD/256)*256)
         MEXIT ,                                                  MACRO
.PUSH    ANOP  ,                                                  MACRO
&NAME    MVC   #RETRY+2,#RETRY         PUSH CURRENT ADDRESS
         MVI   #RETRY+0,&DD/256
         MVI   #RETRY+1,&DD-((&DD/256)*256)
         MEXIT ,                                                  MACRO
.RESET   ANOP  ,                                                  MACRO
&NAME    MVI   #RETRY+0,0              RESET RETRY ADDRESS
         MEXIT ,                                                  MACRO
.POP     ANOP  ,                                                  MACRO
&NAME    MVC   #RETRY,#RETRY+2         POP PREVIOUS ADDRESS
         MVI   #RETRY+2,0              RESET RETRY ADDRESS
.MEND    MEND  ,                                                  MACRO
*----------------------------------------------------------------------
         MACRO ,
&NAME    TABLE &FN
         LCLA  &I,&J,&K                                         GP09255
         LCLC  &NAME2                                           GP09255
&I       SETA  2
&J       SETA  &FN
&NAME2   SETC  '&NAME'
.LOOP    AIF   (T'&SYSLIST(&I) EQ 'O').NEXT
         AIF   ('&SYSLIST(&I)'(1,1) EQ '''').HH
&K       SETA  K'&SYSLIST(&I)
&NAME2   DC    AL1(&J,&K),C'&SYSLIST(&I)'
.HH      AIF   ('&SYSLIST(&I)'(1,1) NE '''').NEXT
&K       SETA  K'&SYSLIST(&I)-2
&NAME2   DC    AL1(&J,&K),C&SYSLIST(&I)
.NEXT    ANOP  ,
&NAME2   SETC  ''
&I       SETA  &I+1
&J       SETA  &J+1
         AIF   (&I LE N'&SYSLIST).LOOP
         MEND  ,
***********************************************************************
*                                                                     *
*       GSF-ENV DEBUGGING AID                                         *
*                                                                     *
*       THIS GENERALIZED ESTAE ROUTINE SIMPLIFIES ABEND               *
*       RESOLUTION BY FORMATTING IMPORTANT MVS CONTROL                *
*       BLOCKS IN AN EASIER-TO-READ FASHION.                          *
*                                                                     *
*       THIS IS NOT A SYSTEM-WIDE DEBUGGING TOOL LIKE ABEND-AID.      *
*       TO USE IT, YOU MUST INVOKE IT WITH THE FOLLOWING              *
*       SEQUENCE:                                                     *
*                                                                     *
*                  LOAD  EP=@BANDAID                                  *
*                  LR    R15,R0                                       *
*                  BASSM R14,R15              INVOKE WITH AMODE31     *
*                                                                     *
*       NOTES:                                                        *
*                                                                     *
*         1. THIS FIRST INVOCATION OF THE ROUTINE SETS UP A STANDARD  *
*            RECOVERY ENVIRONMENT (ESTAE) TO TRAP ABENDS.             *
*                                                                     *
*         2. DO NOT TRY TO REPLACE LOAD/BASSM WITH LINK IN THE        *
*            INVOKING SEQUENCE.                                       *
*                                                                     *
*       THE DEBUGGING ROUTINE MAY ALSO BE USED FROM JCL,              *
*       WITHOUT MODIFYING THE PROGRAM, AS FOLLOWS:                    *
*                                                                     *
*         //MYSTEP  EXEC PGM=@BANDAID,                                *
*         //            ACCT=MYPROG,            <== PROGRAM NAME      *
*         //            PARM=(A,B,C,D)          <== PROGRAM'S PARM    *
*         //STEPLIB  DD DISP=SHR,DSN=GILBERT.LOAD                     *
*         //SYSDEBUG DD SYSOUT=*                                      *
*         //SYSUDUMP DD SYSOUT=*                                      *
*                                                                     *
*       THE DEBUGGING REPORT (WRITTEN TO DDN=SYSDEBUG) CONTAINS       *
*       THE FOLLOWING DATA:                                           *
*                                                                     *
*         O  THE ABEND PSW AND REGISTERS                              *
*                                                                     *
*         O  THE TCB TREE AND RB CHAINS (IF THIS IS A MULTI-TASK STEP *
*                                                                     *
*         O  THE RB CHAIN OF THE ABENDING TCB, IN GREATER DETAIL      *
*                                                                     *
*         O  THE JPAQ AND LOAD-LIST                                   *
*                                                                     *
*         O  THE SAVE-AREA CHAIN (FORWARD ONLY)                       *
*                                                                     *
*         O  THE TIOT (ALLOCATED DDS)                                 *
*                                                                     *
*         O  OPEN DATA SETS (WITH CURRENT RECORD)                     *
*                                                                     *
*   REASON CODES FOR NOT PRINTING A RECORD/BUFFER:                    *
*        00 length is 0                01 EOB address invalid         *
*        02 RECAD not valid                                           *
*        06 IOB/ICB not valid                                         *
*                                      11 Buffer,EOBAD,BDW mismatch   *
*        12 RDW length < 4             13 RDW length > LRECL          *
*        14 RDW low bytes not 0        15 VB scan failed              *
*                                                                     *
*                                                                     *
*       THE DEBUGGING ROUTINE HAS A LOOP DETECTION FEATURE            *
*       THAT CAUSES AN U0322 ABEND IF THE PROGRAM CONSUMES            *
*       MORE THAT 5 SECONDS OF CPU TIME WITHOUT DOING AN IO.          *
*       THIS FEATURE IS INACTIVATED WHEN A //DBGNO322 DD IS           *
*       PRESENT IN STEP'S JCL.                                        *
*                                                                     *
***********************************************************************
*                                                                     *
*   I STARTED RETROFITTING THIS FOR MVS 3.8J (TURNKEY PROJECT) USING  *
*   CONDITIONAL ASSEMBLY, BUT IT GOT TOO MESSY. SOME EXTRANEOUS XA,   *
*   ESA, OS/390 AND Z/OS STUFF REMAINS, BUT DOESN'T INTERFERE.        *
*   FUNCTIONS NOT AVAILABLE UNDER MVS HAVE BEEN REPLACED OR SKIPPED.  *
*   UNAVAILABILITY OF LOCTR UNDER ASM/XF REQUIRED MAJOR REARRANGEMENT.*
*   ADDITIONAL WORK REMAINS.                                          *
*   SURPRISES: SVC 99 TEXT UNITS MUST BE IN VOLATILE STORAGE, EVEN    *
*     THOUGH THEY'RE NOT SUPPOSED TO BE ALTERED???  STILL FAILS -     *
*       WHEN DD PRE-ALLOCATED, GET 0C4 IN SVC 99. ADDED DEVTYPE.      *
*   CHANGED SYSDEBUG ABEND TO CANCEL, PREVENTING ABEND LOOP.          *
*                                                      G. POSTPISCHIL *
***********************************************************************
         PUNCH '  ORDER @BANDAID(P) '   EASIER DEBUGGING        GP09255
         SPACE 1                                                GP09255
         COPY  OPTIONGB      LOCAL ASSEMBLY DEFINITIONS         GP09255
         GBLC  &SYSVER,&SYSDATC,&STR,&HDR                       GP09255
         GBLA  &K                                               GP09255
         LCLC  &LOCANY,&LOCBEL                                  GP09255
         AIF   (NOT &MVSXA).NOLOCOP                             GP09255
&LOCANY  SETC  ',LOC=ANY'                                       GP09255
&LOCBEL  SETC  ',LOC=(BELOW,ANY)'                               GP09255
.NOLOCOP SPACE 1                                                GP09255
&HDR  SETC 'GSF UTILITIES - @BANDAID R038'                      GP09255
*ESP  RETROFIT TO RUN ON MVS 3.8J; USE TACHYON ASSEMBLER        GP09255
*NO*  PUNCH ' SETSSI 02510000'  ESP USES 0YYYYDDD
*ESP  CHANGED PROGRAM NAME FROM SYSDEBUG TO @BANDAID - LOCAL PREFERENCE
*$251 4-DIGIT DEVN (REQUIRES MVS/ESA 4.1 OR ABOVE).
*$250 ENQ AND HH.MM.SS
*$249 FIX S0C7 IN OS/390 R3 BUG WHEN JCTJMRJD=0 AND JCTSSD=0
*$248 ADD SUPPORT FOR HLASM R3
*     ADD SUPPORT FOR JES2 OS 1.3.0
*$247 TITLE LINE DISPLAYS DATE IN YYYY-MM-DD FORMAT
*$246 CORRECT RECFM=U RECORD LENGTH
*$245 INITIALISATION ROUTINE HAS BEEN REWRITTEN TO NO LONGER
*     REQUIRE CALLER TO PROVIDE ADDR OF SAVE AREA IN R13.
*$244 ADD SUPPORT FOR CALLERS IN MODE=SUP AND KEY 0-7
*     MINOR CHANGES TO JOB CARD FORMATTING ROUTINE
*     LOCATE DDNAME FOR JPAQ MODULES LOADED FROM A PDSE
*$243 ALLOCATE 4 PAGES BELOW THE LINE AT INITIALIZATION TIME.
*     FREE-UP 3 PAGES IN RECOVERY RTNE TO PREVENT GETMAIN FAILURES.
*     FREE-UP ALL 4 PAGES IF RECOVERY INVOKED WITH R0=12 (NO SDWA)
*$242 USE RTM2WA TO DISTINGUISH BETWEEN TYPE-1 SVC AND PROGRAM CHECK
*     INACTIVATE ESPIE ENVIRONMENT CREATED BY INVOKING PGM
*     CONVERT ESTAE TO ESTAI IF INVOKED FROM AN SVC ROUTINE
*     GET ADDR OF RMODE31 ACB FROM DEBRRQ
*$241 DO NOT DISPLAY OPEN MODE FOR VSAM ACB, IT'S MEANINGLESS
*     DO NOT ISSUE U0322 ABEND IF //DBGNO322 DD PRESENT IN STEP'S JCL
*     PREVENT S30A-14 ABEND WHEN INVOKED BY A USER IN KEY 0-7
*     RETRIEVE BUFFER ADDR FROM ICB WHEN CHAINED SCHEDULING IS USED
*     IMPLEMENT NEXTLLE RTNE TO PREVENT STACK OVERFLOW
*     CHECK FOR R0=12 ON ENTRY TO RECOVERY ROUTINE
*$240 DO NOT PRINT LINES WITH IDENTICAL CONTENTS (PDUMP RTNE)
*     PRINT PLH/RPL SEQ# WHEN STRNO>1
*$239 ENHANCE JOB/STEP INFORMATION REPORTING
*     HASH-CODE NAME TO ACCESS CDX
*     PRINT ALL ACTIVE PLHS IF STRNO>1
*     PRINT CONTENTS OF COM_REG AREA
*     PREVENT S0C4 WHEN IOBECBAD IS BAD
*     PROVIDE SUPPORT FOR QSAM BUFFERS ABOVE THE LINE (DFSMS/MVS)
*     IMPROVE METHOD TO LOCATE V/VB RECORD IN QSAM BUFFERS
*$238 PREVENT S806 WHEN INVOKER DOESN'T SET R13
*$237 STORAGE ALLOCATION TABLE (USING TCTCORE AND LDA)
*     SOME INFORMATION FROM JOB AND EXEC JCL STATEMENTS
*$236 USE ESTAE INSTEAD OF ESPIE TO VALIDATE A(DYNAM31)
*$236 CONVERT DDN TO DSN FOR JPAQ ENTRIES
*$235 IDENTIFY SUB-TASKS ON TCB TREE THAT HAVE TERMINATED ALREADY
*$234 RETRIEVE CDEX TO DISPLAY DDNAME FOR JPAQ MODULES
*$234 FLAG SAVE AREA POINTED TO BY R13 AT TIME OF ABEND
*$233 DISPLAY CONTENTS OF PARM FIELD
*$232 FLAG ABENDING RB, USE NEXTRB ROUTINE
*$231 DISPLAY LABEL=(,SUL) IF PRESENT ON DD STMT FOR DISK DATA SETS
*$230 DISPLAY R14,R15,R0,R1 VALUES FOR EACH RB
*$229 PRINT RPLOPTCD OPTIONS CODES AND DCBE
*$228 DISPLAY ATTRIBUTES OF SYSOUT DATA SETS
*$227 SCAN LPAQ IN ADDITION TO JPAQ AND LPAD
*$226 DISPLAY REG1 FOR DATACOM SUBTASK
*$225 SOME MODIFICATIONS IN VSAM CONTROL BLOCK DISPLAY
*$224 PRINT SDWA AT THE END OF THE REPORT
*$223 IDENTIFY OS/VS COBOL EYE-CATCHERS
*$222 VALIDATE ADDRESS OF WORK AREA TO PREVENT S0C4
*$220 FIXED BUG IN DUMP32 ROUTINE THAT PREVENTED PLH/RPL DISPLAY
*$212 DISPLAY CURRENT SAVE AREA IF NOT IN FWD CHAIN
*$211 USE NUCLKUP TO ENHANCE ADDRESS IDENTIFICATION
*$210 USE ONLY STANDARD MACRO LIBRARIES
*$209 IMPROVE SAVE AREA PROCESSING
*$208 GET RID OF @JDATE ROUTINE
*$206 ALLOW INVOCATION FROM JCL TO FRONT-END PGM
*$205 PRINT SYSOUT RCD FROM JES2 UNPROTECTED BUFFER
*$200 DO NOT USE SUBS SERVICES
***********************************************************************
         SYSPARM LIST=YES    SET LOCAL OPTIONS                  GP09255
         SPACE 1                                                GP09255
         PRINT NOGEN         SAVE A TREE OR TWO <G>             GP03001
@BANDAID CSECT ,                       MAIN CSECT
@BANDAID AMODE 31                      MAIN CSECT               GP03001
@BANDAID RMODE ANY                     MAIN CSECT
DYNAM31  DSECT ,             START IT EARLY (NO LOCTR)          GP09255
         DS    18A           TOP SAVE AREA                      GP09255
@BANDAID CSECT ,             BACK TO CODE                       GP09255
         SPACE 1
         USING *,R15
         B     BEGIN
*
*        USING THE OFFICIAL ASMH/HLASM DISTINCTION TRICK,
*        SIMULATE THE SYSVER AND SYSDATC VARIABLES
*        OF HLASM WHEN ASSEMBLED UNDER ASMH
*
&SYSVER  SETC  'ASMXF'
&SYSDATC SETC  '20'.'&SYSDATE'(7,2)'&SYSDATE'(1,2)'&SYSDATE'(4,2)
         AIF   ('&SYSDATC' LT '20900000').ASMH1X
&SYSDATC SETC  '19'.'&SYSDATE'(7,2)'&SYSDATE'(1,2)'&SYSDATE'(4,2)
.ASMH1X  ANOP  ,
&STR     SETC  '&HDR &SYSDATC &SYSTIME'
&K       SETA  K'&STR
         DC    AL1(&K),C'&HDR &SYSDATC &SYSTIME',0H'0'
*---------------------------------------------------------------------*
*                                                                     *
*        DETERMINE IF RECOVERY IS ALREADY INITIALIZED FOR THIS TASK.  *
*        IF IT IS, SET R15 AND R0 AND GOBACK TO CALLER                *
*                                                                     *
*---------------------------------------------------------------------*
BEGIN    L     R1,PSATOLD-PSA          MY TCB
         USING TCB,R1
         ICM   R1,B'1111',TCBSTAB      FIRST SCB
         BZ    INIT12                  NO SCB FOR THIS TASK, EXIT
         USING SCB,R1
         LA    R0,DBGAID             MY RECOVERY EXIT
*LOOP
INIT11B  CL    R0,SCBEXIT              IS THIS ME?
         BNE   INIT11N                 NO, EXIT
         LR    R15,R0                  A(DBGAID)
         SR    R0,R0         CLEAR HIGH BYTE                    GP09255
         ICM   R0,7,SCBPARM  GET OLD FASHIONED PARAM VALUE      GP09255
         BR    R14           RETURN                             GP09255
         SPACE 1                                                GP09255
INIT11N  ICM   R1,B'1111',SCBCHAIN     NEXT SCB
         BNZ   INIT11B                 LOOP
*ENDLOOP
*---------------------------------------------------------------------*
*                                                                     *
*        SCAN TIOT TO SEE IF A SYSDEBUG DD IS ALLOCATED.              *
*        IF IT IS ALLOCATED TO A DD DUMMY, QUIT.                      *
*        IF IT IS NOT ALLOCATED AND WE'RE UNDER TSO, QUIT.            *
*                                                                     *
*---------------------------------------------------------------------*
INIT12   BALR  R15,0
         USING *,R15
         L     R1,PSATOLD-PSA          MY TCB
         USING TCB,R1
         L     R1,TCBTIO               TIOT
         USING TIOT1,R1
         SLR   R0,R0                   PREPARE IC
*LOOP
INIT12B  CLC   TIOEDDNM,DCBDDNAM-IHADCB+MODELDCB IS THIS MY DDNAME?
         BE    INIT12K                 YES, EXIT LOOP
         IC    R0,TIOELNGH             LOAD LENGTH OF CURRENT ENTRY
         ALR   R1,R0                   BUMP UP TO NEXT ENTRY
         CLI   TIOELNGH,0              IS THIS THE END?
         BNZ   INIT12B                 NOT YET, LOOP THROUGH TIOT
*ENDLOOP
*
*        IF TSO AND DD MISSING, DO NOT ACTIVATE DEBUGGING
*
INIT12D  L     R1,PSAAOLD-PSA          MY ASCB
         L     R1,ASCBCSCB-ASCB(,R1)   MY CSCB
         LA    R0,1                    R0=1
         CLI   CHTRKID-CHAIN(R1),CHTSID  AM I A TSO USER?
         BE    INIT19                  YES, QUIT (R15=0,R0=1)
*
*        IF //SYSDEBUG DD DUMMY, EXIT
*
INIT12K  BALR  R15,0                   (LOCAL BASE)
         USING *,R15
         TM    TIOELINK,TIOESSDS       SUB-SYSTEM DATA SET?
         BO    INIT20                  YES, CONTINUE
         ICM   R0,B'0111',TIOEFSRT     DD DUMMY?
         BNZ   INIT20                  NO, CONTINUE
         DROP  R1                      TIOT
         LA    R0,2                    R0=2
*
*        INITIALISATION ERROR: GOBACK TO CALLER WITH R15=0
*
INIT19   SLR   R15,R15                 YES, QUIT (R15=00)
         SLR   R1,R1                   R1=0
         BSM   0,R14
*---------------------------------------------------------------------*
*                                                                     *
*        ISSUE TESTAUTH TO DETERMINE IF WE SHOULD TAKE THE            *
*        AUTHORIZED OR THE NON-AUTHORIZED INIT PATH.                  *
*                                                                     *
*---------------------------------------------------------------------*
INIT20   BALR  R15,0                   (LOCAL BASE)
         USING *,R15
         TESTAUTH STATE=YES,RBLEVEL=1  CHECK PSW MODE
         LTR   R15,R15                 RUNNING IN MODE=SUP ?
         BALR  R15,0                   (LOCAL BASE)
         USING *,R15
         BNZ   INIT200                 NO, JUMP
***********************************************************************
*                                                                     *
*        AUTHORIZED INITIALISATION PATH (INVOKED WITH MODE=SUP)       *
*                                                                     *
*        1. GETMAIN PROTECTED SAVE AREA (SP 252)                      *
*        2. SAVE CALLER'S REGS                                        *
*        3. SWITCH TO TCB KEY                                         *
*        4. GETMAIN DYNAM31                                           *
*        5. GETMAIN DYNAM24                                           *
*        6. ISSUE ESTAE                                               *
*        7. CHANGE ESTAE TO ESTAI (IF INVOKED FROM SVC ROUTINE)       *
*        8. RESTORE CALLER'S REGS AND PSW KEY                         *
*        9. FREE PROTECTED SAVE AREA AND GOBACK TO CALLER             *
*                                                                     *
***********************************************************************
INIT100  GETMAIN RU,LV=64,SP=252&LOCANY                         GP09255
         LR    R0,R2                   SAVE R2 ACCROSS MODESET
         MODESET EXTKEY=ZERO,SAVEKEY=(2) SWITCH TO TCB KEY
         XR    R2,R0                   RESTORE R2
         XR    R0,R2                   RESTORE R2
         XR    R2,R0                   RESTORE R2
         STM   R0,R15,0(R1)            SAVE CALLER'S REGS AND PSW KEY
         BALR  R11,0
         USING *,R11
         LR    R12,R1                  KEEP SAVE AREA ADDR
*
*        SWITCH TO TCB KEY
*
INIT101  L     R4,PSATOLD-PSA
         USING TCB,R4
         MODESET EXTKEY=TCB,WORKREG=2  SWITCH TO TCB KEY
*
INIT102  LA    R0,DYNAM31L-1
         GETMAIN RC,LV=(0),BNDRY=PAGE,&LOCANY                   GP09255
         LTR   R15,R15                 GETMAIN OK?
         BNZ   INIT190                 NO, QUIT
         LR    R13,R1                  PASS ADDRESS
         USING DYNAM31,R13
         XC    ZEROES,ZEROES ENSURE IT'S CLEAR                  GP03119
*
         BAL   R14,INIT900             ALLOCATE //SYSDEBUG DD
*
*        ALLOCATE 4 PAGES BELOW THE LINE.  MOST OF THIS STORAGE
*        IS A PLACE-HOLDER THAT IS FREEMAIN'D BY THE RECOVERY
*        RTNE WHEN IT IS ENTERED TO PREVENT POSSIBLE S80A OR S878
*        ABENDS DURING OPEN OF THE SYSDEBUG DCB.
*
         GETMAIN RC,LV=DYNAM24L&LOCBEL   RMODE24 WORK AREA      GP09255
         LTR   R15,R15                 GETMAIN OK?
         BNZ   INIT190                 NO, GOBACK
         ST    R1,DYNAM24P             SAVE A(DYNAM24)
*
*        ISSUE ESTAE
*
         ESTAE DBGAID,               RECOVERY ROUTINE                  X
               CT,                     CREATE                          X
               PARAM=(R13),            PARAM FOR RECOVERY ROUTINE      X
               TERM=YES,               PROCESS CANCEL ABENDS           X
               MF=(E,ESTAEL)
         LTR   R0,R15                  ESTAE OK?
         BNZ   INIT190                 NO, GOBACK
*---------------------------------------------------------------------*
*                                                                     *
*        CONVERT THE ESTAE TO AN ESTAI IF I'VE BEEN INVOKED FROM      *
*        AN SVC ROUTINE.                                              *
*                                                                     *
*---------------------------------------------------------------------*
INIT130  L     R5,TCBRBP               MY PRB OR SVRB
         USING RBBASIC,R5
         LA    R0,130                  EXIT CODE
         TM    RBSTAB1,RBFTSVRB        RUNNING UNDER AN SVRB?
         BNO   INIT190                 NO, EXIT
*
INIT135  LA    R0,135                  EXIT CODE
         ICM   R6,B'1111',TCBSTAB      MOST RECENT SCB
         BZ    INIT190                 NO SCB, EXIT (VERY BIZARRE!!!)
         USING SCB,R6
         LA    R15,DBGAID            EXIT ADDR WITHOUT AMODE BIT
         LA    R0,136                  EXIT CODE
         CL    R15,SCBEXIT             IS THIS THE ADDR OF MY EXIT?
         BNE   INIT190                 NO, QUIT
*---------------------------------------------------------------------*
*                                                                     *
*        PATCH THE SCB                                                *
*                                                                     *
*---------------------------------------------------------------------*
         BALR  R15,0
         USING *,R15
         MODESET EXTKEY=ZERO           SWITCH TO KEY ZERO
         STCM  R4,B'0111',SCBOWNRA     ASSOCIATE SCB WITH TCB
         OI    SCBFLGS1,SCBSTAI        ESTAI
         NI    SCBFLGS2,255-SCBSUPER   MODE=PROB
         NI    SCBFLGS2,255-SCBKEY0    KEY=NZERO
*
*        CHECK IF MY SCB IS THE ONLY ONE CHAINED TO MY TCB.
*        IF THERE ARE OTHER SCBS ON THE QUEUE, MOVE MY SCB
*        TO THE END OF THE QUEUE TO ENSURE I'M INVOKED LAST
*        AND PREVENT S0C4 IN IEAVTAS1.
*
         LA    R0,141                  EXIT CODE
         ICM   R2,B'1111',SCBCHAIN     ONLY SCB ON QUEUE?
         BZ    INIT190                 YES, EXIT
*LOOP
INIT144  LR    R1,R2                   PREVIOUS SCB
         ICM   R2,B'1111',SCBCHAIN-SCB(R1) LAST SCB ON QUEUE?
         BNZ   INIT144                 NO, LOOP MORE
*ENDLOOP
         ST    R6,SCBCHAIN-SCB(,R1)    MY SCB AT BOTTOM OF QUEUE
         MVC   TCBSTAB,SCBCHAIN        NEXT SCB AT TOP OF QUEUE
         XC    SCBCHAIN,SCBCHAIN       MY SCB IS LAST ON QUEUE
         LA    R0,145                  EXIT CODE
*---------------------------------------------------------------------*
*                                                                     *
*        RESTORE CALLER'S ENVIRONMENT AND GOBACK                      *
*                                                                     *
*---------------------------------------------------------------------*
         DROP
INIT190  BALR  R15,0
         USING *,R15
         L     R2,0(,R12)              R0 FROM PROTECTED SAVE AREA
*NEW*    MODESET KEYREG=(R2)           SWITCH BACK TO CALLER'S KEY
         MODESET KEYADDR=(2),WORKREG=(2)  BACK TO CALLER'S KEY  GP09255
         LR    R1,R12                  ADDR OF PROTECTED SAVE AREA
         LM    R2,R14,8(R12)           RESTORE CALLER'S R2-R14
 LR R2,R0                              PASS EXIT CODE
         FREEMAIN RU,LV=64,A=(R1),SP=252 FREE PROTECTED SAVE AREA
*
         SLR   R15,R15                 R15=0
         BCTR  R15,0                   R15=-1
         SLR   R0,R0                   R0=0
         SLR   R1,R1                   R1=0
         BSM   0,R14                   GOBACK TO CALLER
         DROP  ,
***********************************************************************
*                                                                     *
*        NON-AUTHORIZED INITIALISATION PATH (INVOKED WITH MODE=PROB)  *
*                                                                     *
*        1. GETMAIN DYNAM31                                           *
*        2. SAVE CALLER'S REGS IN SAVER012                            *
*        3. GETMAIN DYNAM24                                           *
*        4. ISSUE ESTAE                                               *
*        5. PRIME TIMER                                               *
*        6. ISSUE XCTL (IF INVOKED FROM JCL)                          *
*        7. RESTORE CALLER'S REGS AND GOBACK (IF INVOKED FROM PGM)    *
*                                                                     *
***********************************************************************
INIT200  BALR  R15,0
         USING *,R15
         LA    R0,DYNAM31L-1
         GETMAIN RC,LV=(0),BNDRY=PAGE,&LOCANY                   GP09255
         DROP  R15
         LTR   R15,R15                 GETMAIN OK?
         BALR  R15,0
         BZ    INIT210-*(,R15)         NO, QUIT
         SLR   R15,R15                 R15=0
         SLR   R0,R0                   R05=0
         SLR   R1,R1                   R1=0
         BSM   0,R14                   GOBACK
*
INIT210  STM   R0,R15,SAVER012-DYNAM31(R1) SAVE CALLER'S REGS
         LR    R13,R1                  A(DYNAM31)
         USING DYNAM31,R13
*
         BALR  R11,0
         USING *,R11
*
         BAL   R14,INIT900            ALLOCATE //SYSDEBUG DD
*
*        ALLOCATE 4 PAGES BELOW THE LINE.  MOST OF THIS STORAGE
*        IS A PLACE-HOLDER THAT IS FREEMAIN'D BY THE RECOVERY
*        RTNE WHEN IT IS ENTERED TO PREVENT POSSIBLE S80A OR S878
*        ABENDS DURING OPEN OF THE SYSDEBUG DCB.
*
         GETMAIN RC,LV=DYNAM24L&LOCBEL   RMODE24 WORK AREA      GP09255
         LTR   R15,R15                 GETMAIN OK?
         BNZ   INIT209                 NO, QUIT
         ST    R1,DYNAM24P             SAVE A(DYNAM24)
*
*        ISSUE ESTAE XCTL=YES
*
         ESTAE DBGAID,               RECOVERY ROUTINE                  X
               CT,                     CREATE                          X
               PARAM=(R13),            PARAM FOR RECOVERY ROUTINE      X
               TERM=YES,               PROCESS CANCEL ABENDS           X
               XCTL=YES,               STAY ACTIVE ACROSS XCTL         X
               MF=(E,ESTAEL)
         LA    R0,X'0020'              RETCODE FOR XCTL/STACK CONFLICT
         CLR   R15,R0                  XCTL/STACK CONFLICT?
         BNE   INIT220                 NO, CONTINUE
*
*        ISSUE ESTAE XCTL=NO IF THERE IS AT LEAST A STACK ENTRY ACTIVE
*
         ESTAE DBGAID,               RECOVERY ROUTINE                  X
               CT,                     CREATE                          X
               PARAM=(R13),            PARAM FOR RECOVERY ROUTINE      X
               TERM=YES,               PROCESS CANCEL ABENDS           X
               MF=(E,ESTAEL)
         LTR   R15,R15                 ESTAE OK?
         BZ    INIT220                 YES, JUMP
*
INIT209  LM    R2,R14,SAVER012+8       RESTORE CALLER'S REGISTERS
         SLR   R15,R15                 R15=0
         SLR   R0,R0                   R05=0
         SLR   R1,R1                   R1=0
         BSM   0,R14                   GOBACK
*---------------------------------------------------------------------*
*                                                                     *
*        SET-UP TIMER FOR LOOP DETECTION                              *