HASPMON  TITLE 'HASP-4 MONITOR'
         PRINT NOGEN
*
*
*   HASPMON - A MONITOR OF HASP 4 SPOOL UTILIZATION, CONSOLE/SPOOL
*             BUFFER USAGE, AND I/O AND JOB ACTIVITY
*
*   HASPMON IS COMPOSED OF TWO PROGRAMS: HASPMON (MONITORS HASP) AND
*   HASPRINT (FORMATS AND PRINTS HASPMON OUTPUT).
*
*   SAMPLE JCL ---
*     //HASPMON EXEC PGM=HASP4MON,REGION=20K
*     //STEPLIB  DD ...
*     //HASPSTAT DD DSN=&&STAT,UNIT=WORK,DISP=(,PASS),SPACE=(TRK,1)
*     //SYSPRINT DD SYSOUT=A
*     //SYSUDUMP DD SYSOUT=A
*     //HASPRINT EXEC PGM=HASPRINT,REGION=30K
*     //STEPLIB  DD ...
*     //HASPSTAT DD DSN=&&STAT,DISP=(OLD,DELETE)
*     //SYSPRINT DD SYSOUT=A
*     //SYSUDUMP DD SYSOUT=A
*
*   WRITTEN AT OHIO STATE (?) FOR HASP 3.1
*
*   UPDATED FOR HASP 4 AT NASA-GSFC BY FRANK PAJERSKI (301) 982-4672
*
*   MODIFIED TO OUTPUT MONITOR DATA AT 10 MINUTE INTERVALS  (AUG, 1978)
*                                   BY BRUCE LELAND   (805) 982-5447
*   01NOV77-
*    . COMMENTS ADDED
*    . &BUFNUM REPLACED &MINBUF TO HANDLE THOSE HASPS WITH &MINBUF
*      SET VERY HIGH TO FORCE BUFFER USAGE MESSAGE AT START-UP TIME
*    . $OUTPUT COMBINES $PRINT AND $PUNCH (HASP 3 JQE FLAGS) ---
*      NOTE THIS MEANS THAT OUTPUT WAIT CAN NO LONGER BE DECIPHERED
*      TWIXT PRINT AND PUNCH
*    . &NUMTPES AND &NUMCONS SYMBOLIC PARAMETERS FOR HASP 3 DELETED
*    . SET LINE-COUNT IN 'PRINT' FOR 54 LINES/PAGE
*
         SPACE 2
         MACRO
&NAME    $DISABLE
&NAME    MODESET ENABLE=NO
         MEND
         SPACE 1
         MACRO
&NAME    $ENABLE
&NAME    MODESET ENABLE=YES
         MEND
         EJECT
         COPY  $GLOBAL
         SPACE 2
         GBLA  &BUFNUM       NUMBER OF BUFFERS IN USE BY HASP
         SPACE 2
HASPMON  CSECT
         SPACE 2
&BUFNUM  SETA  170           *** SET THIS A FEW MORE THAN IN USE ****
         SPACE 2
         COPY  $HASPGEN
         SPACE 2
         $HASPCB BUFFER,CMB,DCT,DCB,DEB,UCB,TED,JQE,HCT,PCE,DOC=NO
         TITLE 'HASP-4 MONITOR'
*
*   START HERE . . .
*
         PRINT ON,NOGEN
         SPACE 2
         USING *,R13,R9,R12           /ABL (ADDED BASE REG 9)
*****    USING HASP,R11
SAVEAREA DC    9D'0'
TABCLEAR ST    R0,0(,R1)           CLEAR ONE WORD
         BXLE  R1,R2,TABCLEAR      NOW DO THE REST
MONLOOP  LM    R1,R2,ALSTATB       GET A($ALSTATB,F'50')
         L     R3,0(,R1)           GET NUM OF ALLOC T.G.S
         MR    R2,R2                TIMES 50 FOR SCALING
         D     R2,4(,R1)           DIVIDED BY NUMBER OF TOTAL T.G.S
         SLL   R3,2                ADJUST FOR FULL WORD COUNTER
         L     R1,SPOOL(R3)        GET PROPER COUNTER
         A     R1,=F'1'            ADD ONE TO IT
         ST    R1,SPOOL(R3)          AND SAVE IT
         SRL   R3,1                CONVERT TO PERCENT
         ST    R3,SAMPUSE@           AND SAVE IT
         LH    R2,$COMMCT          FREE CMB BUFFERS
         ST    R2,SAMPCMBF
         SLL   R2,2                SET FOR PROPER NNDEX
         L     R1,CONBUF(R2)       GET THE RIGHT COUNTER
         A     R1,=F'1'             ADD ONE TO IT
         ST    R1,CONBUF(R2)         AND SAVE IT
         SR    R2,R2               SET COUNTER TO
         BCTR  R2,0                 MINUS ONE
         $DISABLE ALL              DISABLE
         LA    R1,$BUFPOOL-(BUFCHAIN-BUFDSECT) START OF SPOOL BUFS
BUFA     L     R1,BUFCHAIN-BUFDSECT(,R1)
         A     R2,=F'1'            ADD ONE TO COUNTER
         LA    R1,0(,R1)           ZERO POSSIBLE FLAGS IN H.O.B.
         LTR   R1,R1               IF NOT ZERO
         BNZ   BUFA                 THEN LOOP SOME MORE
         $ENABLE ALL               TURN IRH LOOSE
         ST    R2,SAMPBUFP         FREE BUFFERS
         LA    R1,&BUFNUM           CHECK FOR MORE
         CR    R1,R2                AND USE
         BNL   *+6                  MINIMUM
         LR    R2,R1                IF TOO MANY
         SLL   R2,2                EACH ENTRY IS 4 BYTES LONG
         L     R1,BUF(R2)          GET THE COUNTER
         A     R1,=F'1'             ADD ONE
         ST    R1,BUF(R2)            AND SAVE IT
         SR    R1,R1               ZERO FOR IC
         LH    R1,$EXCPCT          GET CURRENT I/O COUNTER
         CH    R1,=H'40'           IF COUNT GTR 40
         BNH   *+8                  THEN USE
         LH    R1,=H'40'            40 INSTEAD
         SLL   R1,2                SET INDEX
         L     R2,IO(R1)           GET COUNTER
         A     R2,=F'1'             ADD ONE
         ST    R2,IO(R1)             AND SAVE IT
         IC    R1,$XEQACT          JOBS IN OS XEQ
         SLL   R1,2                FOR INSEX
         L     R2,XEQ(R1)          GET THE COUNT
         A     R2,=F'1'             ADD ONE
         ST    R2,XEQ(R1)            AND SAVE IT
         LA    R4,DCT              ADDRESS OF COUNTERS
         LA    R2,$DCTPOOL-(DCTCHAIN-DCTDSECT)  SET FOR FIRST LOAD
         USING DCTDSECT,R2
MDCTA    L     R2,DCTCHAIN         GET A POINTER
         CLI   DCTDEVTP,DCTOLAY    IF THE OVERLAY DCT
         BE    MDCTEND              WE ARE ALL DONE
         TM    DCTSTAT,DCTINUSE    IS THE DEVICE BEING USED
         BZ    MDCTB                IF NOT THEN DONT COUNT
         L     R5,0(,R4)           GET THE COUNTER
         A     R5,=F'1'             ADD ONE TO IT
         ST    R5,0(,R4)             AND SAVE IT
MDCTB    LA    R4,4(,R4)           NEXT COUNTER ADDRESS
         B     MDCTA               NOW GO LOOP
         DROP R2
MDCTEND  NULL
*        GET HEAD POSITION FOR ACTIVE SPOOLS
         LA    R1,$DACKPT          SPOOL CHECKPOINT FIELD
         LA    R2,&NUMDA           NUMBER OF SPOOLS GENED FOR HASP
         L     R3,AMTTR            ADDRESS OF TABLE
         L     R4,$TEDADDR         ADDRESS OF TED
         USING TEDDSECT,R4
MTTRA    CLI   0(R1),X'00'         IF ZERO THIS
         BE    MTTREND              SPOOL IS NOT USED
         L     R5,200(,R3)         COUNT THIS
         A     R5,=F'1'             USE OF
         ST    R5,200(,R3)           THE SPOOL
         L     R6,TNCH             GET LAST SEEK MTTR
         LA    R6,0(,R6)           CLEAR EXTENT NUMBER
         SRDL  R6,40               ZERO R6, THROW AWAY 'R' OF TTR
         D     R6,TNTC             FIND CYLINDER NUMBER
         N     R7,=F'-8'  WAS -4   GROUP 0-3,4-7, ETC   (FOR 2314'S)
         SRL   R7,1                DIVIDE BY TWO       **  FOR
         CH    R7,=H'196'          GREATER THAN 392?   **     3330'S
         BL    *+8                 NO, BRANCH          **
         LH    R7,=H'196'          USE THE EQUIVALENT OF 392
         L     R5,0(R3,R7)         GET THE COUNT
         A     R5,=F'1'             ADD ONE TO IT
         ST    R5,0(R3,R7)           AND SAVE IT
MTTREND  LA    R1,6(,R1)           INC TO NEXT CKPT
         LA    R3,204(,R3)          NEXT SPOOL TABLE
         LA    R4,TEDSIZ(R4)        AND NEXT TED
         BCT   R2,MTTRA            NOW SPIN FOR ALL SPOOLS
         DROP  R4
         IC    R1,$STATUS          GET $STATUS
         SRL   R1,1                 SAVE ONLY
         SLL   R1,25                BITS 0 THRU 6
         LA    R2,RDRPEND          START HERE
MISCLOOP ALR   R1,R1               SET CC AND SHIFT LEFT
         BC    8,MISCEND           END IF ZERO, NO CARRY
         BC    12,MISCLUP          B IF NO CARRY
         L     R3,0(,R2)           GET THE COUNTER
         A     R3,=F'1'             ADD ONE TO IT
         ST    R3,0(,R2)            AND SAVE IT
MISCLUP  LA    R2,4(,R2)           POINT TO NEXT COUNTER
         B     MISCLOOP            CONTINUE
MISCEND  EQU   *
         SR    R2,R2               ZERO R2   $XEQ
         LR    R3,R2               AND R3    $OUTPUT (OR $HARDCOPY)
         LR    R4,R2                AND R4   $SETUP (LOCAL QUEUE)
         $DISABLE ALL
         LA    R0,4                SET THE COUNT INC
         L     R1,$JQENT           GET THE START OF THE QUEUE
         BAL   R6,*+8              SET RETURN INTO R6 AND SKIP 1ST LOAD
         L     R1,QUECHAIN(R1)     DOWN THE CHAIN
         LA    R1,0(,R1)           ZERO POSSIBLE FLAGS IN H.O.B.
         LTR   R1,R1               IF QUE IS EMPTY
         BZ    QUEND                THE EXIT
         TM    QUETYPE(R1),QENTBY  IF THIS ENTRY IS ACTIVE
         BOR   R6                   THEN SKIP IT
         TM    QUETYPE(R1),X'70'   LOCAL JCL-SCAN QUEUE ?
         BNO   *+8           NO
         AR    R4,R0         UP COUNT
         BR    R6            RETURN
         TM    QUETYPE(R1),$XEQ    IS THIS CORRECT
         BZ    *+8                 IF NOT TRY ANOTHER
         AR    R2,R0               INC WHEN FOUND
         BR    R6                  SPIN
         TM    QUETYPE(R1),$OUTPUT+$HARDCPY  PRINT OR PUNCH?
         BZ    *+8                 NO, TRY ANOTHER
         AR    R3,R0               INC WHEN FOUND
         BR    R6                  SPIN
         TM    QUETYPE(R1),$SETUP  JCLCHECK OR $SETUP QUEUE?
         BZR   R6                  SPIN IF NOT
         AR    R4,R0               INC WHEN FOUND
         BR    R6                  SPIN
QUEND    $ENABLE ALL               DONT NEED IT ANY MORE
         LA    R0,1                SET INC
         L     R6,AQXEQ            GET COUNT TABLE ADDRESS
         L     R1,0(R2,R6)         GET THE COUNTER
         AR    R1,R0                ADD ONE TO IT
         ST    R1,0(R2,R6)           AND STORE IT BACK
         L     R6,AQOUTPUT
         L     R1,0(R3,R6)
         AR    R1,R0
         ST    R1,0(R3,R6)
         L     R6,AQJCLCK
         L     R1,0(R4,R6)
         AR    R1,R0
         ST    R1,0(R4,R6)
         SPACE 2
         LA    R3,$HASPWT     BEGINNING OF FIELD
         LA    R0,1           COUNT INCREMENT
         LA    R1,4           LOCATION INCREMENT
         IC    R6,$HASPECF    DECODE THE HASP EVENT WAIT FIELD
         SLL   R6,24          SHIFT TO SIGN POSITION
WAITBIT  ALR   R6,R6          BIT SET?
         BZ    WAITEND        NO -- AND NO MORE ARE EITHER
         BM    *+14           NO, BRANCH
         L     R5,0(,R3)      YES, INCREMENT
         AR    R5,R0                        THIS
         ST    R5,0(,R3)                        COUNTER
         AR    R3,R1          NEXT COUNTER
         B     WAITBIT        DO THE NEXT BIT
WAITEND  DS    0H
         SPACE 2
         L     R1,COUNT       UPDATE COUNT
         A     R1,=F'1'
         ST    R1,COUNT
         SR    R0,R0
         D     R0,=F'8'
         M     R0,=F'8'
         C     R1,COUNT       SAMPLE FOR MONITOR OUTPUT EVERY 8
         BNE   LATER          NOT THIS ONE, BRANCH
         SPACE 5
*     SAMPLING FOR OUTPUT DURING MONITORING
         L     R2,COUNTS
         A     R2,=F'1'       SAVE THIS SAMPLE COUNT
         ST    R2,COUNTS
         SR    R1,R1
         IC    R1,$XEQACT        JOBS IN O/S EXECUTION
         ST    R1,SAMPOSX
         IC    R1,$ACTIVE        ACTIVE HASP FUNCTIONS
         ST    R1,SAMPACTF
         LH    R1,$EXCPCT        ACTIVE HASP I/O COUNT
         ST    R1,SAMPAIO
         $DISABLE ALL
         LA    R1,$TPBPOOL       FIRST AVAILABLE RJE BUFFER
         LA    R2,40             LINK TO NEXT BUFFER
         BAL   R3,COUNTBF
         ST    R4,SAMPFRJE
         LA    R1,$BUSYQUE       CMB'S QUEUED FOR I/O
         SR    R2,R2
         BAL   R3,COUNTBF
         ST    R4,SAMPCMBI
         LA    R1,$LOGQUE        CMB'S QUEUED FOR LOG PROCESSOR
         SR    R2,R2
         BAL   R3,COUNTBF
         ST    R4,SAMPCMBL
         LA    R1,$COMMQUE       CMB'S QUEUED FOR COMMAND PROC
         SR    R2,R2
         BAL   R3,COUNTBF
         ST    R4,SAMPCMBP
         LA    R1,$DOMQUE        CMB'S QUEUED FOR ACTION
         SR    R2,R2
         BAL   R3,COUNTBF
         ST    R4,SAMPCMBW
         LA    R1,$SMFFREE       FREE SMF BUFFER QUEUE
         SR    R2,R2
         BAL   R3,COUNTBF
         ST    R4,SAMPSMFF
         LA    R1,$SMFBUSY       SMF BUFFERS QUEUED FOR I/O
         SR    R2,R2
         BAL   R3,COUNTBF
         ST    R4,SAMPSMFB
         $ENABLE ALL
         L     R1,$JOTABLE       GET NUMBER OF FREE JOE'S
         LH    R4,4(,R1)         (FROM JOTFREC)
         ST    R4,SAMPJOE
*
         L     R5,UCBSTRT              START OF PSEUDO DEVICE LIST
         LA    R3,SAMPPSDO-4           SAMPLE START ADDRESS - 4
         XC    SAMPPSDO(16),SAMPPSDO   CLEAR THE FOUR SAMPLE LOCATIONS
UCBLOOP  LA    R5,2(,R5)               UCB LIST POINTER
         LH    R6,0(,R5)               NEXT UCB BASE
         LTR   R6,R6                   VALID UCB ADDRESS?
         BZ    UCBLOOP                 NO -- EMPTY POINTER -- LOOP
         BM    ENDUCB                  NO -- END OF LIST -- BRANCH
         TM    11(R6),X'01'            FREE PSEUDO DEVICE?
         BZ    UCBLOOP                 NO, BRANCH
         TM    3(R6),X'08'             ALLOCATED BY O.S.?
         BO    UCBLOOP                 YES, BRANCH
         SR    R2,R2
         IC    R2,19(,R6)              DEVICE TYPE CHARACTER
         C     R2,=F'8'                POSSIBLE HASP PSEUDO DEVICE?
         BH    UCBLOOP                 NO, IGNORE
         IC    R2,PSEUDO(R2)           TRANSLATE TO A TABLE INDEX
         LTR   R2,R2                   HASP PSEUDO DEVICE?
         BZ    UCBLOOP                 NO, BRANCH
         L     R1,0(R2,R3)             INCREMENT
         A     R1,=F'1'                         PSEUDO DEVICE
         ST    R1,0(R2,R3)                                   TYPE COUNT
         B     UCBLOOP                 TRY THE NEXT ONE
ENDUCB   DS    0H
         SPACE 3
         USING PCEDSECT,R5
         LA    R5,$PCEORG-(PCENEXT-PCEDSECT)
         LA    R0,1                    COUNTER INCREMENT
         LA    R1,4                    SAMPLE LOCATION INCREMENT
         XC    SAMPPCE(56),SAMPPCE     CLEAR THE SAMPLE LOCATIONS
         SR    R7,R7                   PCEEWF BIT DECODE REGISTER
PCELOOP  L     R5,PCENEXT              NEXT PCE ADDRESS
         LTR   R5,R5                   END OF CHAIN?
         BZ    PCEDONE                 YES, BRANCH
         LA    R3,SAMPPCE              FIRST SAMPLE LOCATION
         LH    R6,PCEEWF               EVENT WAIT FIELD
         SRL   R6,2                    DROP BOTTOM TWO BITS
         SRDL  R6,14                   SAVE NEXT FOURTEEN
NEXTBIT  ALR   R7,R7                   BIT SET?
         BZ    PCELOOP                 NO -- NO MORE ARE EITHER
         BM    *+14                    NO, BRANCH
         L     R6,0(,R3)               INCREMENT
         AR    R6,R0                            THIS
         ST    R6,0(,R3)                            COUNTER
         AR    R3,R1                   INCREMENT SAMPLE LOCATION
         B     NEXTBIT                 DO THE NEXT BIT
PCEDONE  DS    0H
         DROP  R5
         SPACE 4
         LA    R1,LCNT/4         NUMBER OF ITEMS
         LA    R2,SAMPLE         CURRENT DATA VALUE POINTER
MINMAX   L     R15,0(,R2)        CURRENT DATA VALUE
         C     R15,LCNT(,R2)     NEW MIN?
         BNL   *+8               NO, BRANCH
         ST    R15,LCNT(,R2)
         C     R15,LCNT*2(,R2)   NEW MAX?
         BNH   *+8               NO, BRANCH
         ST    R15,LCNT*2(,R2)
         A     R15,LCNT*3(,R2)   TOTAL
         ST    R15,LCNT*3(,R2)        OCCURANCES
         LA    R2,4(R2)          NEXT DATA ITEM
         BCT   R1,MINMAX         REPEAT UNTIL DONE
LATER    L     R1,COUNT            GET THE SAMPLE COUNTER
         C     R1,MAXSAMP          ENOUGH TIME?
         BNL   EXIT                YES, STOP
         L     R2,PECB             GET ADDRESS OF STOP ECB
         TM    0(R2),X'40'         WERE WE STOPPED
         BO    EXIT                EXIT IF YESS
         SR    R0,R0               PREPARE FOR DIVIDE
         D     R0,=F'1000'         TIME TO WRITE A SAMPLE?
         LTR   R0,R0
         BNZ   *+8
         BAL   R2,OUTCOUNT
         STIMER WAIT,BINTVL=F50    WAIT ABIT
         TM    $STATUS,$SYSEXIT    IF HASP IS TERMINATING
         BO    EXIT                 THEN WE SHOULD DO LIKEWISE
         B     MONLOOP              THEN CONTINUE
EXIT     TIME  DEC                 GET THE ENDING TIME
         STM   R0,R1,TIMEOFF        AND SAVE IT FOR THE REPORT
         BAL   R2,OUTCOUNT
         MVC   JOBNOS+2(2),$JOBNO  LAST JOB NUMBER
         WRITE DECB,SF,STAT,COUNT,TABLEN  SAVE THE INFO
         CHECK DECB                SEE IF IT WENT OK
RETURN   CLOSE (STAT,,SYSPRINT)
         L     R13,4(,R13)
         RETURN (14,12),RC=0
OUTCOUNT MVC   HEADER+7(6),=X'402020202120'
         L     R1,COUNT
         CVD   R1,DOUBLE
         ED    HEADER+7(6),DOUBLE+5
         PUT   SYSPRINT,HEADER
         LA    R3,LCNT/4           NUMBER OF OUTPUT ENTRIES
         LA    R4,ENTRIES          TEXT ENTRIES
         LA    R5,SAMPLE
OUTEACH  MVC   PRINT(L'ENTRIES),0(R4)
         L     R1,0(,R5)
         CVD   R1,DOUBLE
         MVC   PRINT+35(4),=X'40202120'
         ED    PRINT+35(4),DOUBLE+6           CURRENT
         L     R1,LCNT(,R5)
         CVD   R1,DOUBLE
         MVC   PRINT+47(4),=X'40202120'
         ED    PRINT+47(4),DOUBLE+6           MIN
         L     R1,LCNT*2(,R5)
         CVD   R1,DOUBLE
         MVC   PRINT+59(4),=X'40202120'
         ED    PRINT+59(4),DOUBLE+6           MAX
         L     R1,LCNT*3(,R5)
         M     R0,=F'10'       FOR SCALING
         D     R0,COUNTS       TAKE THE AVERAGE
         CVD   R1,DOUBLE
         MVC   PRINT+72(7),=X'40202021204B20'
         ED    PRINT+72(7),DOUBLE+5           AVERAGE
         LA    R5,4(,R5)
         LA    R4,L'ENTRIES(,R4)
         PUT   SYSPRINT,PRINT
         MVC   PRINT(133),PRINT-1
         BCT   R3,OUTEACH
         BR    R2
         SPACE 4
COUNTBF  SR    R4,R4          RETURN REGISTER
         L     R1,0(,R1)      BUFFER BASE
         B     BUFFS+4        SKIP FIRST TIME
BUFFS    L     R1,0(R2,R1)    NEXT BUFFER
         LA    R1,0(,R1)      CLEAR HI-BYTE
         LTR   R1,R1          END OF CHAIN?
         BZR   R3             YES, QUIT
         A     R4,=F'1'       BUFFER COUNT
         B     BUFFS          TRY THE NEXT ONE
         EJECT
*
*   AREAS FOR SAMPLING DURING HASP MONITORING (ONCE EVERY EIGHT CYCLES)
*
*
         DS    0F
SAMPLE   DC    XL128'00'      ACTUAL SAMPLE HOLD AREA
LCNT     EQU   L'SAMPLE
MIN      DC    128X'7F'       MINIMUM OCCURRENCE
MAX      DC    XL128'00'      MAXIMUM OCCURRENCE
AVG      DC    XL128'00'      TOTALS POSITIONS
*
SAMPUSE@ EQU   SAMPLE+00     ...SOURCE:  $ALSTATB
SAMPOSX  EQU   SAMPLE+04     ...SOURCE:  $XEQACT
SAMPACTF EQU   SAMPLE+08     ...SOURCE:  $ACTIVE
SAMPAIO  EQU   SAMPLE+12     ...SOURCE:  $EXCPCT
SAMPBUFP EQU   SAMPLE+16     ...SOURCE:  $BUFPOOL
SAMPSMFF EQU   SAMPLE+20     ...SOURCE:  $SMFFREE
SAMPSMFB EQU   SAMPLE+24     ...SOURCE:  $SMFBUSY
SAMPJOE  EQU   SAMPLE+28     ...SOURCE:  $JOTTABLE AND JOTFREQ
SAMPFRJE EQU   SAMPLE+32     ...SOURCE:  $TPBPOOL
SAMPCMBI EQU   SAMPLE+36     ...SOURCE:  $BUSYQUE
SAMPCMBL EQU   SAMPLE+40     ...SOURCE:  $LOGQUE
SAMPCMBP EQU   SAMPLE+44     ...SOURCE:  $COMMQUE
SAMPCMBW EQU   SAMPLE+48     ...SOURCE:  $DOMQUE
SAMPCMBF EQU   SAMPLE+52     ...SOURCE:  $COMMCT
SAMPPSDO EQU   SAMPLE+56     ...SOURCE:  UCB CHANNEL D
*        EQU   SAMPLE+60     ...SOURCE:  UCB CHANNEL D
*        EQU   SAMPLE+64     ...SOURCE:  UCB CHANNEL D
*        EQU   SAMPLE+68     ...SOURCE:  UCB CHANNEL D
SAMPPCE  EQU   SAMPLE+72     ...SOURCE:  PCE $POSTED
*        EQU   SAMPLE+76     ...SOURCE:  PCE WAIT FOR A BUFFER
*        EQU   SAMPLE+80     ...SOURCE:  PCE WAIT FOR A TRACK
*        EQU   SAMPLE+84     ...SOURCE:  PCE WAIT FOR A JOB
*        EQU   SAMPLE+88     ...SOURCE:  PCE WAIT FOR A UNIT
*        EQU   SAMPLE+92     ...SOURCE:  PCE WAIT FOR A CHECKPOINT
*        EQU   SAMPLE+96     ...SOURCE:  PCE WAIT FOR CMB OR SMF BUFFER
*        EQU   SAMPLE+100    ...SOURCE:  PCE WAIT FOR JOT SERVICE
*        EQU   SAMPLE+104    ...SOURCE:  PCE WAIT FOR AN OPERATOR REPLY
*        EQU   SAMPLE+108    ...SOURCE:  PCE WAIT FOR I/O
*        EQU   SAMPLE+112    ...SOURCE:  PCE WAIT FOR WORK
*        EQU   SAMPLE+116    ...SOURCE:  PCE WAIT FOR A $S COMMAND
*        EQU   SAMPLE+120    ...SOURCE:  PCE WAIT FOR A DDT OR UCB
*        EQU   SAMPLE+124    ...SOURCE:  PCE WAIT FOR AN OVERLAY AREA
         EJECT
*                   12345678901234567890123456
ENTRIES  DC    CL26'-PERCENT SPOOL UTILIZATION'
         DC    CL26' JOBS IN O/S EXECUTION    '
         DC    CL26' ACTIVE HASP FUNCTIONS    '
         DC    CL26' ACTIVE HASP I/O COUNT    '
         DC    CL26'-FREE HASP BUFFERS        '
         DC    CL26' FREE SMF BUFFERS         '
         DC    CL26' SMF BUFFS QUEUED FOR I/O '
         DC    CL26' FREE JOE''S              '
         DC    CL26' FREE TP BUFFERS          '
         DC    CL26'-CMB''S QUEUED FOR I/O    '
         DC    CL26' CMB''S QUEUED FOR LOGGING'
         DC    CL26' CMB''S QUEUED FOR COMMAND'
         DC    CL26' CMB''S QUEUED FOR ACTION '
         DC    CL26' CMB''S FREE              '
         DC    CL26'-FREE SYSOUT=A UCB''S     '
         DC    CL26' FREE SYSOUT=B UCB''S     '
         DC    CL26' FREE  DD *  UNITS        '
         DC    CL26' FREE INTRDR''S           '
         DC    CL26'-PCE''S POSTED            '
         DC    CL26' WAIT -- BUFFER           '
         DC    CL26' WAIT -- DISK SPACE       '
         DC    CL26' WAIT -- JOB              '
         DC    CL26' WAIT -- UNIT             '
         DC    CL26' WAIT -- CHECKPOINT       '
         DC    CL26' WAIT -- CMB OR SMF BUFFER'
         DC    CL26' WAIT -- JOT SERVICE      '
         DC    CL26' WAIT -- OPERATOR RESPONSE'
         DC    CL26' WAIT -- INPUT/OUTPUT     '
         DC    CL26' WAIT -- WORK             '
         DC    CL26' WAIT -- $S COMMAND       '
         DC    CL26' WAIT -- DDT OR UCB       '
         DC    CL26' WAIT -- OVERLAY AREA     '
         EJECT
ONEBLK   DC    C' '                TO CLEAR PRINT
PRINT    DC    CL133' '
*                  0  1  2  3  4  5  6  7  8  PSUEDO DEVICE / UNIT
PSEUDO   DC    AL1(00,12,08,00,00,16,00,00,04)   CORRESPONDENCE TABLE
DOUBLE   DS    D
*
STAT     DCB   DDNAME=HASPSTAT,DSORG=PS,RECFM=U,MACRF=W,               +
               BLKSIZE=TABLEN
SYSPRINT DCB   DDNAME=SYSPRINT,DSORG=PS,RECFM=FBA,LRECL=133,           +
               BLKSIZE=133,MACRF=(PM)
         SPACE 8
HEADER   DC    CL50'1SAMPLE 12345                LAST COUNT   MIN COUN'
*                   12345678901234567890123456789012345678901234567890
         DC    CL83'T   MAX COUNT   AVERAGE COUNT'
ALSTATB  DC    F'0',F'50'
PECB     DC    F'0'      SAVE FOR A(STOP ECB)
UCBSTRT  DC    F'0'      FIRST LIST POINTER FOR HASP PSEUDO DEVICES - 2
COUNTS   DC    F'0'      SAMPLES TAKEN FOR OUTPUT DURING MONITORING
F50      DC    F'50'     1/2 SECOND BETWEEN SAMPLES
MAXSAMP  DC    F'3000'   SAMPLES DESIRED (ABOUT 1/2 HOUR)
        SPACE 2
         LTORG
        PRINT  GEN
         EJECT
COUNT    DC    F'0'
RDRPEND  DC    F'0'
ALMSGSW  DC    F'0'
DRAINED  DC    F'0'
CKPTACT  DC    F'0'
JITCKPT  DC    F'0'
SYSEXIT  DC    F'0'
JOTCKPT  DC    F'0'
JOBNOS   DC    F'0'
$HASPWT  DC    8F'0'
TIMEON   DC    2F'0'
TIMEOFF  DC    2F'0'
BASE     DC    A(*)
ASPOOL   DC    A(SPOOL)
AMTTR    DC    A(MTTR)             SPOOL HEAD POSITION
ACONBUF  DC    A(CONBUF)
ABUF     DC    A(BUF)
AIO      DC    A(IO)
AXEQ     DC    A(XEQ)
AQXEQ    DC    A(QXEQ)
AQOUTPUT DC    A(QOUTPUT)
AQJCLCK  DC    A(QJCLCK)
ADCT     DC    A(DCT)
AEND     DC    A(END)
&TEMP    SETA  (&NUMRDRS+&NUMPRTS+&NUMINRS+&NUMPUNS)*2
&TEMP    SETA  &TEMP+&MAXXEQS+2
&TEMP    SETA  &TEMP+&NUMLNES+&NUMTPBF+(&NUMRJE*2)+4
         AIF   (&NUMTPPU EQ 0).NORTMPU
&TEMP    SETA  &TEMP+&NUMRJE
.NORTMPU ANOP
$DCT     DC    &TEMP.CL12' '       SAVE FOR DEVICE NAMES
SPOOL    DS    51F
CONBUF   DS    (&NUMWTOQ+1)F
BUF      DS    (&BUFNUM+1)F
IO       DS    41F
XEQ      DS    (&MAXXEQS+2)F
DCT      DS    &TEMP.F
&TEMP    SETA  &NUMDA*51           50 CYLINDER GROUPS PLUS ONE COUNT
MTTR     DS    &TEMP.F
QXEQ     DS    (&MAXJOBS+1)F
QOUTPUT  DS    (&MAXJOBS+1)F
QJCLCK   DS    (&MAXJOBS+1)F
END      DS    0F
TABLEN   EQU   *-COUNT
         ORG   SPOOL
         EJECT
         PRINT NOGEN
         DROP  R9,R12
         USING *,R10
MONINIT  STM   R14,R12,12(R13)     SAVE OS REGS
         LR    R10,R15             SET THE BASE
         L     R12,=A(SAVEAREA)    ESTABLISH HASPMON BASE
         ST    R13,4(,R12)         SAVE AREA LINKAGE
         ST    R12,8(,R13)         *
         LR    R13,R12             *
         LA    R9,4095             SECOND BASE REGISTER
         LA    R9,1(R9,R13)
         LA    R12,4095(,R9)
         LA    R12,1(,R12)
         L     R1,0(,R1)           ADDRESS OF PARM
         LH    R2,0(,R1)           PARM LENGTH
         LTR   R2,R2               ANY PARM?
         BZ    NOPARM              NO, BRANCH
         SR    R3,R3
         SR    R15,R15
NEXT     IC    R3,2(R1)            NEXT DIGIT
         C     R3,=F'240'          NUMERIC?
         BL    NOPARM              NO, USE DEFAULT TIME
         N     R3,=F'15'           MASK OFF ZONE
         MH    R15,=H'10'          ACCUMULATE IN R15
         AR    R15,R3              ADD IN LAST DIGIT
         A     R1,=F'1'            DO ALL
         BCT   R2,NEXT                   DIGITS
         MH    R15,=H'1000'        PARM*1000 IS # OF SAMPLES DESIRED
         ST    R15,MAXSAMP         UPDATE MAXSAMP
NOPARM   L     R11,16              A(CVT)
         L     R11,X'14C'(,R11)    POINTER TO HASP 4.0 HCT
         LTR   R11,R11             IS HASP 4.0 THERE?
         BNZ   NOTEND              YES, BRANCH
NOHASP   WTO   'HASP4MON ABORT -- COULD NOT FIND THE HASP TCB',       XX
               ROUTCDE=(11)
         ABEND 1
NOTEND   S     R11,=F'8'
         MODESET KEY=ZERO
         CLC   0(5,R11),=CL8' V 4.0'
         BE    ITISHASP
         WTO   ' V 4.0 LITERAL NOT FOUND',ROUTCDE=(11)
         ABEND 2
ITISHASP EXTRACT SPOOL,FIELDS=(COMM) FIND STOP ECB
         L     R1,SPOOL            GET THE A(A(ECB)
         MVC   PECB,0(R1)          SAVE ADDRESS IN OUT CODE
         LA    R11,0(,R11)         DROP THE TOP ADDRESS BYTE
*     FIND SPOOL ALLOC STATS
         MVC   *+8(2),$PURGER+2    MOVE D1,B1 OF B $PURGER INSTRUCTION
         LA    R1,0                **** REG ONE SET TO A($PURGER)
         LA    R3,300(,R1)         LOOK FOR 300 BYTES
         LA    R2,2                 TWO BYTES AT A TIME
         CLI   0(R1),X'50'         LOOK FOR THE FIRST ST INSTRUCTION
*                                  B1,D1 POINTS TO $ALSTATB
         BE    FOUND               SIERRA HOTEL
         BXLE  R1,R2,*-8           SPIN
         WTO   'HASPMON - UNABLE TO FIND $ALSTATB'
         B     RETURN
FOUND    MVC   *+8(2),2(R1)        MOVE B1,D1
         LA    R1,0                *** SAME AS LA R1,$ALSTATB
         ST    R1,ALSTATB          SAVE IT FOR LATER
         LA    R4,$DCT             ADDRESS FOR DEVICE NAMES
         LA    R2,$DCTPOOL-(DCTCHAIN-DCTDSECT)
         USING DCTDSECT,R2
LDCTA    L     R2,DCTCHAIN         GET A POINTER
         CLI   DCTDEVTP,DCTOLAY
         BE    LDCTEND             END IF OVERLAY
         CLI   DCTDEVTP,DCTDA      IS IT SPOOL DCT
         BNE   LDCTB               NO, MOVE NAME
         MVC   0(5,R4),=C'SPOOL'   MAKE NAME SPOOL
         B     LDCTC               INC BEFORE LOOPING
LDCTB    LR    R3,R2                     COPY THE DCT POINTER
         MVC   0(8,R4),DCTDEVN           DEVICE NAME
         MVC   9(3,R4),=C'***'           UNDEFINED UCB
         CLC   DCTDEVN(2),=C'RM'         REMOTE DEVICE?
         BNE   NOTRMT                    NO, BRANCH
         TM    DCTPSTAT,DCTSINON         SIGNED ON?
         BNO   NOUCB                     NO, BRANCH
         L     R3,DCTDCB-DCTDSECT(,R2)   LINE ADDRESS
NOTRMT   L     R3,DCTDCB-DCTDSECT(,R3)   DCB ADDRESS
         TM    48(R3),X'10'  DCB OPEN ?
         BZ    NOUCB         NO; SKIP
         L     R3,DCBDEBAD-DCBDSECT(,R3) DEB ADDRESS
         CLC   DEBTCBAD+1-DEBDSECT(3,R3),=F'0'  VALID TCB ADDRESS?
         BE    NOUCB                     NO, BRANCH
         LH    R3,DEBUCBAD+2-DEBDSECT(,R3)  UCB ADDRESS
         LTR   R3,R3                     GOOD ADDRESS?
         BZ    NOUCB                     NO, BRANCH
         MVC   9(3,R4),UCBNAME-UCBDSECT(R3)
NOUCB    DS    0H
         DROP  R2
LDCTC    LA    R4,12(,R4)          INC NAME POINTER
         B     LDCTA               LOOP
LDCTEND  EQU   *
         L     R3,16             PREPARE TO SEARCH UCB'S
         L     R3,X'28'(,R3)     UCB START ADDRESS
         BCTR  R3,0              SUBTRACT
         BCTR  R3,0                      TWO
THISONE  LA    R3,2(,R3)         NEXT UCB ADDRESS POINTER
         LH    R2,0(,R3)         NEXT UCB POINTER
         LTR   R2,R2             ANY UCB?
         BZ    THISONE           NO -- NULL ENTRY -- LOOP
         BM    ABEND10           NO -- END OF LIST -- ERROR
         TM    11(R2),1          UCBATI WITH 1 BIT ?
         BZ    THISONE           NOT A PSEUDO DEVICE ADDRESS, BRANCH
         S     R3,=F'2'          BACK UP ONE LOCATION
         ST    R3,UCBSTRT        SAVE THIS POINTER LIST LOCATION
         B     OPENFILE
ABEND10  WTO   'PSEUDO DEVICES NOT FOUND -- HASPMON ABEND',ROUTCDE=(11)
         ABEND 10
OPENFILE OPEN  (STAT,(OUTPUT),SYSPRINT,(OUTPUT))
         TM    STAT+48,X'10'       DID IT OPEN
         BO    ITOPENED            YEP
OPENERR  WTO   'HASPMON OR SYSPRINT - FILE NOT OPENED'
         B     RETURN
ITOPENED TIME  DEC                 SAVE THE TIME
         STM   R0,R1,TIMEON         THAT THIS THING STARTED
         MVC   JOBNOS(2),$JOBNO    FIRST JOB NUMBER
         TM    SYSPRINT+48,X'10'
         BNO   OPENERR
         SR    R0,R0               ZERO FOR CLEAR CORE ROUTINE
         L     R1,ASPOOL           ADDRESS TO START AT
         LA    R2,4                INDEX FOR BXLE
         L     R3,AEND             WHERE TO
         BCTR  R3,0                 STOP
         B     TABCLEAR            GO INTO NORMAL CODE
         SPACE 2
         LTORG
         ORG
         SPACE 2
         END   MONINIT
./  ADD  NAME=HASP4PRT
HPRT     TITLE 'HASP MONITOR - PRINTER'   ASSEMBLE WITH 'BATCH' OPTION
         PRINT NOGEN
*
*