HMRG    TITLE 'H S P M E R G E  ***  (HASP) MULTI-LEVEL UPDATE PROGRAM'
         MACRO
&NAME    LOG   &LEV,&CC,&SP,&MSG
         LCLA  &TCC,&TSP
&NAME    BAL   R1,LOG&SYSNDX
&TCC     SETA  0
&TSP     SETA  0
         AIF   ('&CC' EQ '').CCOK
&TCC     SETA  &CC
.CCOK    AIF   ('&SP' EQ '').SPOK
&TSP     SETA  &SP
.SPOK    ANOP
         DC    AL1(&LEV,&TCC,&TSP,L'MSG&SYSNDX)
MSG&SYSNDX DC  C&MSG                                            GP97206
LOG&SYSNDX L   R15,=A(LOG)   GET THE LOG WRITER ADDRESS         GP97206
         BALR  R14,R15       INVOKE LOGGER                      GP97206
         MEND
         SPACE 1    ***** N.B.  NOT RENT, NOT REFR, NOT REUS *****
         PUNCH ' ALIAS HASPMRGE'   APPLY LEVEL SETS AS PROVIDED
         PUNCH '  ORDER HSPMERGE(P) '  EASIER DUMPS
         EJECT ,
*
*        HASP 3.98 MERGE PROGRAM
*
*        DEVELOPED JOINTLY BY:
*
*        JIM OBERTHALER - NATIONAL INSTITUTES OF HEALTH COMPUTER CENTER
*
*        ROGER FAJMAN   - WYLBUR SYSTEMS INCORPORATED
*
**********************************************************************
*
*        MODIFICATIONS (BY G. POSTPISCHIL) :
*
*        LEVEL INSERTION INTO CARDS CORRECTED - NO LONGER INSERTS
*              LEVEL INTO WTO STRINGS, ETC.
*              ADDS COMMA ON VERY BLANK CARDS (END, MACRO, ETC.)
*        ./ SKIP CARDS WITH LEVELS OMITTED SUPERCEDE LOWER LEVELS ONLY
*
*        NEW FACILITY ADDED :  ./ COPY NAME=
*              REQUESTED MEMBERS (INPUT TYPE) ARE ADDED FROM THE
*              PDS(S) DEFINED BY INPDS.     EACH MEMBER MUST BE
*              COMPLETE IN ITSELF (LEVEL, LOG, CHANGE, ETC.)
*              COPY STATEMENTS MAY BE INCLUDED IN OTHER MEMBERS
*              PRIOR TO THE FIRST LEVEL/ADD/CHANGE CARD, OR MAY BE
*              ADDED ELSEWHERE IF THE SEQUENCE NUMBER IS CORRECT.
*                                                                81117
*      PGM=HASPMRGE   :   LEVELS PROCESSED IN THE ORDER SUPPLIED 81117
*      PGM=HSPMERGE   :   LEVELS PROCESSED IN COLLATING SEQUENCE 81117
*
*        JCL :
*
*        // EXEC PGM=HSPMERGE,REGION=512K
*        //SYSPRINT DD SYSOUT=A        MERGED OUTPUT LISTING
*        //ERRORS   DD SYSOUT=A        ERROR AND MESSAGE LOG
*        //SYSUT1 DD DSN=SYS1.HASPSRC,DISP=SHR   LIBRARY TO BE UPDATED
*        //SYSUT2 DD DSN=SYS1.HASPNEW,DISP=(,KEEP)...  NEW LIBRARY
*        //WORK  DD UNIT=SYSDA,SPACE=(CYL,(1,1),RLSE,CONTIG) INPUT COPY
*        //INPDS DD DSN=SYS1.HASPMODS,DISP=SHR LIBRARY OF MODIFICATIONS
*        //SYSIN DD          ONE OR MORE SEQUENTIAL DISK DATASETS
*                            MAY BE UNLIKE, CONCATENATED, ETC.
*                            WILL BE COPIED TO 'WORK' FOR PROCESSING
*        ./    COPY  NAME=HASPMODS  USE CHANGES IN MEMBER HASPMODS
*                      IN INPDS DATASET (MAY CONTAIN OTHER COPY STMTS)
*        ./    LEVEL NEWSTUFF    TEMPORARY MODS
*        ./    ADD/CHANGE      CONTROL/UPDATE CARDS PROPERLY SEQUENCED
*
*        A SUCCESSFUL RUN SHOULD BE FOLLOWED BY AN IEBCOPY FROM THE
*              OLD PDS TO THE NEW PDS IF SYSUT2 IS TO BE USED FOR
*              ASSEMBLIES - IT'S EASIER THAN TRYING TO CONCATENATE
*              MACLIBS AND SWITCHING BETWEEN TWO SYSINS ON SUBSEQUENT
*              ASSEMBLIES.
*                                                                87025
*        ./    NUMBER NEW1=SEQ,INCR=NUM   HEADER FOR UNNUMBERED CARDS
*        ./    INSERT SEQ1=SEQ,NEW1=SEQ,INCR=NUM   DITTO         87025
*                                                                87025
*        UNNUMBERED CARDS MAY BE USED FOLLOWING A SKIP AND DELETE CARD,
*        (WITH DEFAULT INCR OF 1), OR AN EXPLICIT NUMBER OR INSERT CARD
*        NEW1, SEQ1 MAY BE OMITTED (DEFAULT TO 73/80 SEQ - 1); INCR
*        DEFAULTS TO 1.  ALL SEQUENCES MAY BE ALPHAMERIC, BUT    87025
*        INCREMENTED POSITIONS SHOULD BE NUMERIC (NOT CHECKED).  87025
*                                                                88361
*        SUPPORT FOR MACRO LIBRARY ADDED (SYSUT3=>SYSUT4; USE ADD/CHG
*              MACR= INSTEAD OF NAME=).  THIS CHANGE ALLOWS PARALLEL
*              MACRO AND SOURCE CHANGES IN THE SAME UPDATES.     88361
*                                                               GP97206
*        CHANGES FOR ESA:  PREVENT ADDRESSABILITY PROBLEMS WHEN SERVICE
*          IS NOT INSTALLED AS AN SVC.                          GP97206
*                                                               GP97266
*        SUPPORT ADDED FOR ./ COPY USING A RANGE NAME=LOW/HIGH  GP97266
*          OR A MASK (USING ? AND * AS WILD-CARDS). USING THESE GP97266
*          REQUIRES INPDS TO BE AN UNCONCATENATED PDS OR PDS/E  GP97266
*
*   FIXES FOR MVS 3.8J: BAS->BAL, ETC.                          GP05225
*
         SPACE 1                                                 88361
         COPY  OPTIONGB      COPY GLOBAL DEFINITIONS             88361
         SYSPARM LIST=YES    SET AND LIST OPTIONS                88361
         SPACE 2
         GBLA  &MAXLEVS,&TOTCHNG,&BUFSIZE,&COPYMAX               *GPP*
&MAXLEVS SETA  65                                                81117
&TOTCHNG SETA  650                                               81117
&BUFSIZE SETA  19040    LIMIT TO SMALLEST AVAILABLE DASD        GP10260
&COPYMAX SETA  60            NUMBER OF ./ COPY NAMES             81117
         TITLE 'H S P M E R G E  ***  PASS 1'                    85237
         PRINT &PRTSOR                                           88361
         SPLEVEL SET=1  *TEMP*SHORTER MACROS*                   GP97205
HSPMERGE PGMHEAD ZERO12,BASE=(R11,R12),PARM=R9,BNDRY=PAGE,             *
               ENTRY=HASPMRGE,ENTNO=ENTRFLAG                    GP11107
         SPACE 3
LEVEL    DSECT
MODULE   DS    CL8
MACFLAG  DS    X             SYSUT1/SYSUT3 FLAG                  88361
MINKEY   EQU   MODULE,*-MODULE,C'C'  MINIMUM KEY                 88361
LEVNAME  DS    CL8
MAXKEY   EQU   MODULE,*-MODULE,C'C'  MAXIMUM SORT KEY            88361
MEMINDX  DS    H           INDEX INTO COPY MEMBER TABLE FOR FIND *GPP*
CARDPTR  DS    A
CURTTR   DS    F
BUFPTR   DS    A
CURBLOK  DS    H
BLKINCR  DS    H
CURSEQ   DS    CL8     1/2
SUPPL    DS    X       2/2         EXTENSION OF SEQUENCE FIELD
TYPE     DS    X                   ADD OR CHNGE FLAG
TPADD    EQU   1             ADD REQUEST                         85237
TPCOPY   EQU   X'10'         COPY MEMBER FROM PDS                85237
TPNUM    EQU   X'80'         ./ INSERT FOUND; INCR. IN MEMINDX   85237
MEMINCR  DS    H             INCREMENT FOR AUTOMATIC NUMBERING   91063
         DS    0F            FORCE ALIGNMENT                     88361
LEVLEN   EQU   *-LEVEL       SIZE OF ONE ENTRY                   88361
NEXTLEV  DS    CL(LEVLEN)    NEXT SUCCEEDING ENTRY              GP11107
         SPACE 1                                                 88361
SOURCE   EQU   R2
START    EQU   R3
STOP     EQU   R4
WA       EQU   R5
WB       EQU   R6
WC       EQU   R7
WD       EQU   R8
WE       EQU   R9
RLL      EQU   R10                                               81117
HSPMERGE CSECT ,                                                 88361
         SPACE 1                                                 88361
*   NOTE:  ENTRY HSPMERGE SORTS LEVELS AS WELL AS MODULE NAMES
*   ENTRY HASPMERG PROCESSES LEVELS IN THE ORDER FOUND IN INPUT.
         MVC   LEVELSEQ+1(1),ENTRFLAG  COPY ENTRY SWITCH        GP11107
         TR    LEVELSEQ+1(1),=AL1(L'MAXKEY-1,L'MINKEY-1)        GP11107
         MVC   PRTFILE(PATFILEN),PATFILE  MAKE SYSPRINT WORKAREA 88361
         MVC   CURLOG,ORIGLOG  INITALIZE                        GP97206
         LA    R9,0(,R9)     CLEAR HIGH BYTE                     88361
         LTR   R9,R9         ANY PARM POINTER ?                  88361
         BZ    EPSCAN        NO                                  88361
         L     R1,0(,R9)           POINT TO PARM INFO
         LH    R2,0(,R1)           PICK UP COUNT
         LTR   R2,R2               ZERO?
         BNP   EPSCAN        SKIP LOOP IF NONE OR BAD            88361
         LA    R1,1(R1,R2)         POINT TO LO-ORDER BYTE
CLINP    CLI   0(R1),C'D'          DEBUG OPTION
         BNE   PINDEB              BR IF NOT
         MVI   DEBSW,1             SET DEBUG SW ON
PINDEB   DS    0H
         CLI   0(R1),C'L'          DEFAULT LOG LEVEL CHANGE?
         BNE   PINLOG              BR IF NOT
         MVC   ORIGLOG(2),1(R1)    PICK UP NEW DEFAULT
PINLOG   DS    0H
         BCTR  R1,0                SHIFT LEFT ONE CHARACTER
         BCT   R2,CLINP            LOOK AT ALL THE CHARACTERS
EPSCAN   L     R0,=A((&TOTCHNG+1)*LEVLEN)  CHANGE CONTROL ENTRIES
         ST    R0,DBLWK      SAVE FOR LATER                      88361
         L     R2,=A((&MAXLEVS+3)*&BUFSIZE)  BUFFER SPACE        88361
         ST    R2,DBLWK+4    SAVE FOR LATER                      88361
         L     R3,=A(9*&COPYMAX)  SIZE FOR COPY NAME TABLE       88361
         AR    R0,R2         CONTROL + BUFFERS                   88361
         ST    R3,DB2        SAVE TABLE SIZE                     88361
         LA    R3,1(,R3)     PLUS STOPPER                        88361
         AR    R0,R3         TOTAL GETMAIN SIZE                  88361
         LR    R5,R0         SAVE TOTAL SIZE                     88361
         GETMAIN R,LV=(0)    GET SPACE (OR BOMB)                 88361
         LR    R4,R1         SAVE THE START ADDRESS              88361
         ST    R1,@SOURCE    POINT TO BASE SOURCE LEVEL          88361
         LA    R14,LEVLEN(,R1)  FIRST ENTRY PAST                 88361
         ST    R14,@LEVONE   SAVE FIRST LEVEL                    88361
         A     R1,DBLWK      POINT TO END OF LEVELS              88361
         ST    R1,@LEVEND    SAVE LAST                           88361
         ST    R1,@OBUF      DOUBLES AS OUTPUT BUFFER ADDRESS    88361
         LR    R15,R1                                            88361
         SH    R15,=H'80'                                        88361
         ST    R15,OBLKPTR   PRESET FOR NEXT INCREMENTATION      88361
         LR    R14,R1        COPY                                88361
         AH    R14,=Y(&BUFSIZE)  POINT TO FIRST OF INPUT BUFFER PAIR
         ST    R14,@INBUF    SAVE IT                             88361
         AH    R14,=Y(&BUFSIZE)  PAST FIRST INBUF                88361
         ST    R14,@INBUF2   SAVE SECOND BUFFER                  88361
         AH    R14,=Y(&BUFSIZE)     PAST SECOND INBUF            88361
         ST    R14,@MDBUF    MODIFICATION BUFFERS                88361
         A     R1,DBLWK+4    SPACE PAST ALL BUFFERS              88361
         ST    R1,@COPYTAB   SAVE COPYTABLE ADDRESS              88361
         LR    R14,R1        COPY COPYTABLE                      88361
         SH    R14,=Y(&BUFSIZE)  LAST COMPLETE BUFFER            88361
         ST    R14,@LASTBUF  STASH IT                            88361
         SLR   R14,R14                                           87025
         SLR   R15,R15                                           87025
         MVCL  R4,R14        CLEAR MEMORY FOR SHORTER DUMPS      88361
         L     WA,@SOURCE    GET FIRST 'LEVEL'                   88361
         LA    RLL,LEVLEN                                        88361
         USING LEVEL,WA      GLOBAL USE                          88361
INITLEVS MVC   MODULE(L'MAXKEY),=(L'MAXKEY)X'FF'  SET STOPPER    88361
         AR    WA,RLL                                            88361
         C     WA,@LEVEND                                        88361
         BL    INITLEVS      DO ALL                              88361
         L     WA,@SOURCE    RESTORE FIRST ENTRY                 88361
         MVC   MODULE,=8X'AA'   WHY ?                            88361
         MVC   LEVNAME,=CL8'SOURCE'                              88361
         L     R14,@INBUF                                        88361
         AH    R14,=Y(&BUFSIZE)     SECOND BUFFER                88361
         ST    R14,BUFPTR    STASH POINTER                       88361
         MVC   CURSEQ,=CL8' '  BLANK INITIAL SEQUENCE            88361
         L     R15,@COPYTAB  GET COPY TABLE                      88361
         A     R15,DB2       PLUS TABLE SIZE                     88361
         MVI   0(R15),X'FF'  STOPPER                             88361
         SPACE 1                                                 88361
         SERVINIT LPA=NO     INITIALIZE SERVICE ROUTINE          90186
         SERVLOAD @PRINTER   LOAD THE PRINT ROUTINE             GP10260
         EJECT ,                                                 90334
*        DURING PASS1 REGISTERS ARE USED AS FOLLOWS:
*
*        R0    PARAMETER PASSING
*        R1        "        "
*        R2    UNUSED
*        R3       "
*        R4       "
*        R5    (WA) INDEX IN LEVELS TABLE
*        R6    (WB) POINTER TO CURRENT CARD IN INPUT BUFFER
*        R7    (WC) POINTER TO FIRST BYTE PAST BUFFER
*        R8    (WD) LOCAL WORK REG
*        R9    (WE) REMEMBERS CURRENT TTR
*        R10   (RLL) LENGTH OF AN ENTRY IN LEVELS TABLE          81117
*        R11   FIRST BASE REGISTER                               81117
*        R12   SECOND BASE REGISTER                              81117
*        R13   POINTS TO OUR SAVE AREA
*        R14   ACCESS METHOD LINKAGE
*        R15   ACCESS METHOD LINKAGE
         SPACE 1                                                 90334
PROCEED  DS    0H
         OPEN  MF=(E,INCOPLST)  OPEN SYSIN / WORK DD
         TM    SYNPUT+DCBOFLGS-IHADCB,DCBOFOPN OPEN ?            *GPP*
         BZ    BADDD         NO                                  *GPP*
         TM    WORKDD+DCBOFLGS-IHADCB,DCBOFOPN DITTO ?           *GPP*
         BZ    BADDD         DITTO                               *GPP*
PROCOPY  GET   SYNPUT        GET INPUT RECORD                    *GPP*
         TM    CONFLAG,2     IS SKIP FLAG ON ?                   *GPP*
         MVI   CONFLAG,1     TURN IT OFF ANYWAY                  *GPP*
         BNZ   PROCOPY       YES - SKIP BAD CONCATENATION RECORD *GPP*
         LR    R0,R1         COPY FOR PUT                        *GPP*
         PUT   WORKDD,(0)    PUT IT OUT                          *GPP*
         B     PROCOPY       GET NEXT RECORD                     *GPP*
         SPACE 2                                                 *GPP*
INPEOF   CLOSE MF=(E,INCOPLST)  CLOSE SYSIN AND WORK DD
         LA    R2,SYNPUT     FREE BUFFER POOL
         BAL   R9,FREEBUFF
         LA    R2,WORKDD     FREE BUFFER POOL                    *GPP*
         BAL   R9,FREEBUFF
         OPEN  (SYSIN)                                           88361
         TM    SYSIN+DCBOFLGS-IHADCB,DCBOFOPN SYSIN OK?
         BZ    BADDD                   BR IF NOT
         PRTOPEN PRTFILE,DEV=1  OPEN THE PRINT FILE              88361
         LR    R2,R15        SAVE THE RETURN CODE                90334
         PRTOPEN ERRFILE,DEV=2  OPEN ERRORS/SUMPRINT FILE        88361
         CH    R15,=H'4'                                         88361
         BNH   GOTMODS                 BR IF ALL OK              88361
         CH    R2,=H'4'      DETAIL PRINT FILE AVAILABLE ?       90334
         BNH   GOTMODS       YES; PROCEED                        90334
BADDD    WTO   '*** HASPMERGE *** REQUIRED DD CARD MISSING/INVALID' GPP
ABEND    SERVTERM ,                                              88361
         ABEND 16,DUMP                                           *GPP*
         SPACE 1
FREEBUFF FREEPOOL (R2)
         BR    R9
INCOPLST OPEN  (SYNPUT,(INPUT,REREAD),WORKDD,OUTPUT),MF=L  OPEN LIST
         SPACE 2
GOTMODS  DS    0H
         PRTF  PHDR2A,PHDR2ALN,DEV=2,TITLE=1  WRITE TITLE        88361
         PRTLIST PHDR2B,PHDR2BLN,DEV=2,TITLE=3  WRITE SUB-TITLE  88361
         USING LEVEL,WA            UNTIL FURTHER NOTICE
         LA    RLL,LEVLEN          VALID THROUGHOUT PROGRAM
         L     WA,@SOURCE    INITIAL SETTING                     88361
         MVI   COPYFLAG,0    INITIALIZE 'COPY' PROCESSING FLAG   *GPP*
         B     P1GO                PROCEED
         SPACE 1
P1NREC   LA    WB,80(,WB)          BUMP TO NEXT CARD
         CR    WB,WC               PAST END OF BLOCK?
         BL    P1BLOKOK            BR IF NOT
P1GO     DS    0H                  ENTER HERE FIRST TIME
         LA    WC,SYSIN      LOAD NORMAL INPUT DCB               *GPP*
         CLI   COPYFLAG,0    SYSIN PASS ?                        *GPP*
         BE    *+8           YES                                 *GPP*
         LA    WC,COPYLIB    ELSE USE INPUT PDS                  *GPP*
         L     WE,@MDBUF     GET MODIFICATION BUFFER             88361
         READ  P1DECB,SF,(WC),(WE),'S'                           88361
         CHECK P1DECB
         NOTE  (WC)                                              *GPP*
         LR    WE,R1               REMEMBER CURRENT TTR
         ST    WE,DBLWK            GET IT INTO CORE
         UNPK  DB2(7),DBLWK(4)    MAKE IT PRETTY                 88361
         MVC   PL1LOC+12(6),DB2   MOVE INTO MESSAGE              88361
         TR    PL1LOC+12(6),UPTOHEX     "   "    "
         LH    WC,MAXBLOK(,WC)     GET MAX COUNT FOR READ        *GPP*
         L     R1,P1DECB+16        R1 --> IOB
         SH    WC,14(,R1)          SUBTRACT RESID COUNT FROM CSW
         L     WB,@MDBUF           POINT WB TO FIRST CARD IMAGE IN BUFR
         AR    WC,WB               POINT WC TO FIRST BYTE PAST BUFFER
         SPACE 1
P1BLOKOK DS    0H
         CLI   DEBSW,1             DEBUGGING?
         BNE   NDB1                BR IF NOT
         LR    R0,WB               POINT AT CURRENT CARD
         S     R0,@MDBUF           GET BUFFER OFFSET             88361
         ST    R0,DBLWK            STORE IT
         UNPK  DB2(5),DBLWK+2(3)  SPREAD IT OUT                  88361
         MVC   PL1LOC+27(4),DB2   MOVE INTO MESSAGE              88361
         TR    PL1LOC+27(4),UPTOHEX  MAKE IT LOOK RIGHT
         LR    R0,WB               GET BUFFER LOC AGAIN
PL1LOC   LOG   HIGH,,1,'TTR=______, OFFSET=____'
NDB1     DS    0H
         CLC   =C'./',0(WB)      CONTROL CARD?
         BNE   P1NREC              BR IF NOT
         LA    R1,2(,WB)           SET FOR SCANNING
         LA    R0,72(,WB)
         BAL   R14,SCANVERB        GET THE VERB
         CLC   =C'LEVEL ',SCANOUT
         BE    P1LEVEL
         CLC   =C'CHNGE ',SCANOUT
         BE    P1CHNGE
         CLC   =C'CHANGE ',SCANOUT
         BE    P1CHNGE
         CLC   =C'ADD ',SCANOUT
         BE    P1ADD
         CLC   =C'REPL ',SCANOUT
         BE    P1REPL
         CLC   =C'COPY ',SCANOUT   COPY STATEMENT ?              *GPP*
         BNE   P1NREC              IGNORE OTHERS FOR NOW         *GPP*
         SPACE 1                                                 *GPP*
         L     R15,=A(P1COPY)  GO TO COPY ANALYSIS ROUTINE      GP97266
         BALR  R14,R15       INVOKE IT                          GP97266
         B     P1NREC        GET NEXT RECORD                     *GPP*
         SPACE 1
P1REPL   STM   R0,R1,DB2     PRESERVE OVER LOGGING CALL          93010
*WHY     LR    R0,WB               LOG THE CARD
*WAS     MVC   *+6+8(8),CURLEVEL  SHOW WHERE                     88361
*THIS?   LOG   ERR,16,,'XXXXXXXX: REPL ILLEGAL   *** ERROR'      88361
         LM    R0,R1,DB2     RESTORE SCAN POINTERS               93010
*
P1ADD    AR    WA,RLL              NEXT ENTRY
         C     WA,@LEVEND                                        88361
         BNL   P1OVER
         MVI   TYPE,TPADD          SET ADD TYPE                  85237
         B     P1NLEV
         SPACE 1
P1CHNGE  DS    0H
         AR    WA,RLL              WA --> NEXT TABLE ENTRY
         C     WA,@LEVEND    STILL WITHIN TABLE?                 88361
         BL    P1NLEV              BR IF SO TO CONTINUE
P1OVER   LR    R0,WB               LOG THE CARD
         SPACE 1
         LOG   ERR,16,,'&&TOTCHNG (&TOTCHNG) EXCEEDED  *** ERROR'
         B     ABEND
         SPACE 1
P1BADCH  LR    R0,WB
         MVC   *+6+8(8),CURLEVEL                                 88361
         LOG   ERR,16,,'XXXXXXXX: MEMBER NAME MISSING   *** ERROR'
         B     ABEND
         SPACE 1
P1NLEV   MVI   MACFLAG,0     PRESET FOR SOURCE (OR ANY)          88361
         CR    R1,R0               END OF CARD?
         BNL   P1BADCH             BR IF SO
         CLC   =C'MACR=',0(R1)  MACRO CHANGE ?                   88361
         BE    P1CHNMAC      YES                                 88361
         CLC   =C'NAME=',0(R1)     IEBUPDTE TYPE?
         BE    P1CHNM        YES                                 88361
         CLC   =C'MACRO=',0(R1)                                  88361
         BNE   P1CHFNM-4           BR IF NOT                     88361
P1CHNMCR LA    R1,1(,R1)     ONE LONGER THAN MACR=               88361
P1CHNMAC MVI   MACFLAG,1     SHOW MACRO                          88361
P1CHNM   LA    R1,5(,R1)           BUMP OVER NAME=
         BAL   R14,SCANFLD         GET THE NAME
P1CHFNM  CR    R1,R0               END OF CARD?
         BNL   P1CHCK              BR IF SO
         CLI   0(R1),C' '          END OF PARMS?
         BE    P1CHCK              BR IF SO
         CLC   =C'NAME=',0(R1)     IEBUPDTE?
         BE    P1CHNM              BR IF SO
         CLC   =C'MACR=',0(R1)  MACRO CHANGE ?                   88361
         BE    P1CHNMAC      YES                                 88361
         CLC   =C'MACRO=',0(R1)                                  88361
         BE    P1CHNMCR      YES; SKIP OVER IT                   88361
         BAL   R14,SCANNBC         SCAN TO NEXT
         B     P1CHFNM
*
P1CHCK   CLI   SCANOUT,C' '        NAME FOUND?
         BE    P1BADCH             BR IF NOT
         ST    WE,CURTTR           REMEMBER STARTING TTR FOR THIS LEV
         SPACE 1
         LR    WD,WB               COMPUTE
         S     WD,@MDBUF             CURRENT CARD                88361
         STH   WD,BLKINCR              OFFSET & SAVE IT
         SPACE 1
         MVC   MODULE,SCANOUT      SAVE MODULE NAME
         MVC   LEVNAME,CURLEVEL    SAVE MODIFICATION LEVEL
         OC    TYPE,COPYFLAG   OR INPUT LIBRARY IN FLAG BYTE     *GPP*
         MVC   MEMINDX,COPYINDX  ADD COPY INDEX FOR FIND         *GPP*
         B     P1NREC              GO BACK FOR NEXT CARD
         SPACE 1
P1LEVEL  DS    0H
         BAL   R14,SCANFLD         EXTRACT THE LEVEL-ID
         CLC   SCANOUT,=CL8' '     BLANK LEVEL?
         BE    P1BADLV             YUP
         MVC   CURLEVEL,SCANOUT    SAVE IT IN CURLEVEL
         SPACE 1
         L     WD,@SOURCE    SCAN EXISTING LEVS FOR DUP          88361
P1LCLC   CLC   CURLEVEL,LEVNAME-LEVEL(WD)  FIND A MATCH?
         BE    P1LERR                      BR IF YES
         AR    WD,RLL              STEP TO NEXT ENTRY
         CR    WD,WA               ARE WE PAST THE END?
         BNH   P1LCLC              BR IF NO TO LOOK AGAIN
         B     P1NREC              GO GET THE NEXT CARD
         SPACE 1
P1LERR   LR    R0,WB               POINT TO BAD CARD FOR LOGGING
         MVC   *+6+8(8),CURLEVEL  SHOW WHERE FROM                88361
      LOG ERR,16,,'XXXXXXXX: DUPLICATE LEVEL ALREADY EXISTS  *** ERROR'
         B     ABEND
         SPACE 1
         DROP  WA
P1BADLV  LOG   ERR,20,,'LEVEL NAME MISSING   *** ERROR'
         B     ABEND
         SPACE 1
UPTOHEX  EQU   *-C'0'              SAVE SPACE
         DC    C'0123456789ABCDEF' FOR TRANSLATION
         TITLE 'H S P M E R G E  ***   PROCESS INPUT PDS COPIES' 85237
PASS1A   CLI   COPYFLAG,0    END OF SYSIN ?                      *GPP*
         BNE   PASS1AX       NO; PROCESS NEXT COPY MEMBER        *GPP*
         L     R2,@COPYTAB   GET COPY TABLE                      88361
         TM    0(R2),X'FF'   ANY ACTIVE ENTRIES ?                *GPP*
         BNM   PASS2         NO; SKIP COPY PHASE                 *GPP*
         OPEN  (COPYLIB)     OPEN INPUT PDS                      *GPP*
         TM    COPYLIB+DCBOFLGS-IHADCB,DCBOFOPN OPEN ?           *GPP*
         BNZ   PASS1AB       OK                                  *GPP*
         SLR   R0,R0                                             *GPP*
         LOG   ERR,20,,'INPDS DD CARD NOT SUPPLIED - COPY STATEMENTS EX*
               IST'                                              *GPP*
         B     ABEND                                             *GPP*
PASS1AB  MVI   COPYFLAG,TPCOPY  SHOW SECOND PHASE OF PASS 1      85237
         B     PASS1AY       R2 SET FOR START OF TABLE           *GPP*
         SPACE 1                                                 *GPP*
PASS1AX  L     R2,COPYSAVE   GET NEXT ADDRESS                    *GPP*
         LA    R2,9(,R2)                                         *GPP*
PASS1AY  TM    0(R2),X'FF'   END OF TABLE ?                      *GPP*
         BNM   PASS2         YES - FINISHED PASS 1               *GPP*
         ST    R2,COPYSAVE   REMEMBER THE ADDRESS FOR NEXT TIME  *GPP*
         LR    R1,R2         COPY THE ADDRESS                    *GPP*
         S     R1,@COPYTAB   EVERYTHING IS RELATIVE ?            88361
         SLR   R0,R0         CLEAR FOR DIVIDE                    *GPP*
         D     R0,=F'9'      MAKE INTO INDEX                     *GPP*
         STH   R1,COPYINDX   SAVE                                *GPP*
         FIND  COPYLIB,1(R2),D  FIND THE MODULE                  *GPP*
         LTR   R15,R15       FOUND ?                             *GPP*
         BZ    P1GO          YES - READ THE MODULE               *GPP*
         SLR   R0,R0         NO CARD IMAGE                       *GPP*
         MVC   PASS1AM+20(8),1(R2)  MOVE MODULE NAME             *GPP*
PASS1AM  LOG   ERR,12,,'COPY MODULE XXXXXXXX NOT FOUND IN INPDS' *GPP*
         B     PASS1AX       TRY NEXT ONE                        *GPP*
         TITLE 'H S P M E R G E  ***  PASS 2'                    85237
         SPACE 1
***** COMMENTS ON REGISTER USAGE DURING PASS2 ***
         SPACE 1
*        R0    PARAMETER PASSING
*        R1        "        "
*        R2    (SOURCE) --> HASP SOURCE ENTRY IN LEVEL TABLS
*        R3    (START)  --> STARTING ENTRY IN LEVELS SUBSET
*        R4    (STOP) --> ENDING ENTRY IN LEVELS SUBSET BEING PROCESSED
*        R5    (WA) --> LEVELS ENTRY BEING PROCESSED
*        R6    (WB) VARIOUS USES
*        R7    (WC) VARIOUS USES
*        R8    (WD) VARIOUS USES
*        R9    (WE) VARIOUS USES
*        R10   (RLL) CONTAINS LEVLEN                             81117
*        R11   FIRST BASE REGISTER                               81117
*        R12   SECOND BASE REGISTER                              81117
*        R13   POINTS TO MERGSAVE
*        R14   SUBROUTINE AND ACCESS METHOD LINKAGE
*        R15   ACCESS METHOD LINKAGE
         SPACE 1                                                 90334
PASS2    CLI   RETCODE+3,8   ERROR DURING PASS1/1A ?             *GPP*
         BNL   FINERRM       YES - QUIT NOW                      *GPP*
   MVC COPYLIB+DCBEODAD-IHADCB+1(3),=AL3(P2EODAB) SET PASS2 EOD  *GPP*
        MVC SYSIN+DCBEODAD-IHADCB+1(3),=AL3(P2EODAD) SET PASS2 EOD ADR
         LH    R1,MAXBLOK+SYSIN   GET SYSIN BLOCKSIZE            *GPP*
         CH    R1,MAXBLOK+COPYLIB  COMPARE TO PDS SIZE           *GPP*
         BNL   *+8           LARGER                              *GPP*
         LH    R1,MAXBLOK+COPYLIB   ELSE USE PDS SIZE            *GPP*
         STH   R1,BLOKMAX    FOR BUFFER SIZE                     *GPP*
         SPACE 1
*   ENTRIES ARE SORTED BY MEMBER NAME SEQUENCE (AND INPUT ORDER) FOR
*     HSPMERGE; OR BY MEMBER/LEVEL SEQUENCE FOR HASPMERG.
*   A BUBBLE SORT IS USED TO KEEP EQUAL KEYS IN SEQUENCE.
*
SORT     DS    0H
         USING LEVEL,WA
NXTPASS  L     WA,@LEVONE    WA --> FIRST MODIFICATION LEVEL     88361
         MVI   QUITSW+1,0          SET SW TO FALL THROUGH
NXTPAIR  CLI   NEXTLEV,X'FF'       REACHED END OF LIST?         GP11107
         BE    QUITSW              BR IF SO
LEVELSEQ CLC   MODULE(*-*),MODULE-LEVEL+NEXTLEV  IN SEQUENCE?   GP11107
         BNH   NSWAP                    BR IF NOT
         XC    LEVEL(LEVLEN),NEXTLEV  SWAP WITHOUT              GP11107
         XC    NEXTLEV(LEVLEN),LEVEL  AN ADDITIONAL BUFFER      GP11107
         XC    LEVEL(LEVLEN),NEXTLEV  BUFFER                    GP11107
         MVI   QUITSW+1,X'F0'      NOTE THAT SOMEBODY MOVED
NSWAP    LA    WA,NEXTLEV          GO TO NEXT PAIR              GP11107
         B     NXTPAIR
         SPACE 1
QUITSW   BC    *-*,NXTPASS         DO IT AGAIN IF ANYTHING MOVED
         SPACE 2                                                 90334
         TM    SYSUT1-IHADCB+DCBOFLGS,DCBOFOPN  RECURSION ?      88361
         BNZ   P2CKSRC       YES; SKIP OPENS                     88361
     OPEN (SYSUT1,(INPUT))   OPEN INPUT LIBRARY
         TM    SYSUT1+DCBOFLGS-IHADCB,DCBOFOPN  PRESENT ?        88361
         BZ    BADDD         NO; FAIL                            88361
         DEVTYPE DCBDDNAM-IHADCB+SYSUT3,DB2  SYSUT3 DD PRESENT ? 88361
         BXH   R15,R15,P2NOUT3  NO                               88361
     OPEN (SYSUT3,(INPUT))   OPEN MACRO INPUT LIBRARY            88361
         SPACE 1
P2NOUT3  OPEN  (SYSUT2,(OUTPUT))  OPEN OUTPUT LIBRARY            88361
         TM    SYSUT2+DCBOFLGS-IHADCB,DCBOFOPN  OPEN ?           88361
         BZ    BADDD         NO; FAIL                            88361
         TM    SYSUT3+DCBOFLGS-IHADCB,DCBOFOPN  MACRO PROCESSING ?
         BZ    P2CKSRC       NO                                  88361
         OPEN  (SYSUT4,(OUTPUT))  TRY TO OPEN MACRO OUTPUT       88361
         TM    SYSUT4+DCBOFLGS-IHADCB,DCBOFOPN  DID IT TAKE ?    88361
         BZ    BADDD         NO; ERROR                           88361
P2CKSRC  LH    R1,DCBBLKSI-IHADCB+SYSUT2
         AL    R1,@OBUF            LOCATE END OF
         ST    R1,OBUFEND          OUTPUT BUFFER
         SPACE 1
         L     START,@LEVONE  START --> FIRST MODIFICATION ENTRY 88361
         SPACE 1
P2CKEND  CLC   MODULE-LEVEL(L'MINKEY,START),MAXSEQ  ALL LEVELS DONE ?
         BNE   P2G0                BR IF NO
         SPACE 1