OTP      TITLE '* * * OVERLAY TREE PROCESSOR, VERSION 1.4 * * *'
         MACRO
&NAME    CHAIN &PARM,&R,&SKIP
         LCLC  &SAVE,&TYPE,&REG
         AIF   (T'&PARM EQ 'O').ERR1
&TYPE    SETC  '&PARM'(1,1)
&SAVE    SETC  '&PARM'(2,8)
         AIF   ('&SAVE' EQ '').ERR2
         AIF   ('&TYPE' NE '+').NOTPLUS
         AIF   (T'&SKIP NE 'O').SKIP
&NAME    SAVE  (14,12),,*
         AGO   .CHAIN
.SKIP    AIF   (T'&NAME EQ 'O').CHAIN
&NAME    DS    0H
.CHAIN   AIF   (T'&R EQ 'O').R12
         AIF   ('&R'(1,2) EQ 'NO').NOBASE
&REG     SETC  '&R'
         AGO   .REG
.R12     ANOP
&REG     SETC  'R12'
.REG     LR    &REG,R15            BASE
         USING &SYSECT,&REG        REGISTER
.NOBASE  LR    R5,R13              OLD SAVE AREA
         LA    R13,&SAVE           NEW SAVE AREA
         ST    R13,8(,R5)          CHAIN FORWARD
         ST    R5,4(,R13)          CHAIN BACK
         MEXIT
.NOTPLUS AIF   ('&TYPE' NE '-').ERR3
&NAME    L     R13,&SAVE+4         RESTORE R13
         RETURN (14,12),T
         MEXIT
.ERR1    MNOTE 8,'*** PARAMETER MISSING. ***'
         MEXIT
.ERR2    MNOTE 8,'*** SAVE AREA MISSING. ***'
         MEXIT
.ERR3    MNOTE 8,'*** TYPE &TYPE INVALID. ***'
         MEND
         SPACE 1
         PUNCH ' ORDER IEWLOTP(P) '    EASIER DUMP READING      GP10097
         SPACE 2
IEWLOTP  CSECT
         PRINT NOGEN         SAVE A TREE                        GP10097
         ENTRY IEWLDONE,IEWLQUIT
* * * * * * * * * * * * * * * * * * * * * * * * * * * * * * * * * * * *
*    THE OVERLAY TREE PROCESSOR READS IN THE CESD AND SEGTAB FOR A    *
*     LOAD MODULE IN OVERLAY STRUCTURE, AND PRODUCES A GRAPHIC        *
*     REPRESENTATION OF THE OVERLAY STRUCTURE.  OPTIONALLY, IT WILL   *
*     PUNCH THE OVERLAY AND INSERT CARDS REQUIRED TO RECREATE THE     *
*     SAME OVERLAY STRUCTURE.                                         *
* * * * * * * * * * * * * * * * * * * * * * * * * * * * * * * * * * * *
*    DDs:     SYSPRINT - MAPPING OF STRUCTURE                         *
*             SYSPUNCH (optional) CONTROL CARDS FOR RELINKING         *
*             SYSLIB   - LOAD MODULE PDS CONTAINING THE MEMBERS       *
*                                                                     *
*    PARM='DECK,NAME=module,NAME=module...'  DECK is optional         *
*        code augmented to allow:                                     *
*    PARM='DECK,NAME=name1,name2,...'        DECK is optional         *
*                  Changes and fix by Gerhard Postpischil 2010-04-07  *
* * * * * * * * * * * * * * * * * * * * * * * * * * * * * * * * * * * *
         SPACE 3
***** REGISTER EQUATES *****
         SPACE
R0       EQU   0
R1       EQU   1
R2       EQU   2
R3       EQU   3
R4       EQU   4
R5       EQU   5
R6       EQU   6
R7       EQU   7
R8       EQU   8
R9       EQU   9
R10      EQU   10
R11      EQU   11
R12      EQU   12
R13      EQU   13
R14      EQU   14
R15      EQU   15
         SPACE 3
***** EQUATES FOR CONSTANTS *****
         SPACE
K        EQU   1024
SP1      EQU   1
BLANK    EQU   C' '
ASTRSK   EQU   C'*'
PERIOD   EQU   C'.'
DASH     EQU   C'-'
COLON    EQU   C':'
DECK     EQU   X'01'
FINISH   EQU   X'04'
OVLY     EQU   X'20'
NE       EQU   X'08'
CNTRLREC EQU   X'01'
IDRREC   EQU   X'80'               IDR RECORD ID
PCDELETE EQU   X'14'
PCFIRST  EQU   X'20'
PC       EQU   X'04'
SD       EQU   X'00'
LR       EQU   X'03'
CM       EQU   X'05'
EDBITS   EQU   X'07'
SIGNBIT  EQU   X'0F'
SIGNBIT2 EQU   X'F0'
OPENBIT  EQU   X'10'
EQUAL    EQU   C'='
COMMA    EQU   C','
NMSRCH   EQU   X'01'
NMRCVD   EQU   X'02'
BUFUSED  EQU   X'01'
LINFULL  EQU   X'02'
LOOKAHED EQU   X'40'
NOENTRYS EQU   X'00'
NULENTRY EQU   X'00'
OFF      EQU   X'00'
ONE      EQU   1
SEGIN    EQU   X'04'
SPECON   EQU   X'80'
MULT4    EQU   2
DOLLAR   EQU   C'$'
TRIPLE   EQU   C'-'
DIGIT    EQU   X'20'
CONLN    EQU   X'20'
FRSTRCVD EQU   X'10'
TABLLN   EQU   256
ALLBITS  EQU   X'FF'
CHAR0    EQU   C'0'
ERRLVL4  EQU   X'08'               IN SWITCHES; LEFT ON = R.C. OF 4
FOUR     EQU   4
NOTEQ    EQU   7                   CONDITION FOR BCR
         EJECT
         SAVE  (14,12),,*
         LR    R12,R15
         USING IEWLOTP,R12
         L     R11,0(,R1)          ADDRESS OF PARAMETERS
         GETMAIN R,LV=DSECTEND-DSECT,SP=SP1
         LR    R2,R1
         USING DSECT,R2
         USING ESDDATA,R4
         CHAIN +SAVEAREA,NOREG,NOSAVE
         GETMAIN VU,LA=COREWANT,A=COREGOT,SP=SP1
         LM    R7,R8,COREGOT       R7=ADDRESS, R8=LENGTH
         S     R8,FOURK            GIVE 4K BACK FOR MISC. GORBLE
         LR    R9,R8
         AR    R9,R7               R9=ADDRESS AT WHICH TO FREE 4K
         ST    R8,COREGOT+4        SAVE CORE KEPT
         FREEMAIN R,LV=4*K,A=(R9),SP=SP1
         SPACE 3
***** CLEAR BEGINNING OF DSECT AREA *****
         SPACE
         XC    ASTERISK(256-ASTERISK+DSECT),ASTERISK  DON'T CLOBBER
         XC    256(256,R2),256(R2)  SAVEAREA
         XC    512(READBFR-DSECT-512,R2),512(R2)
         SPACE 3
***** ALLOCATE CORE FOR TABLES. *****
         SPACE
         LA    R10,0(,R7)          BEGIN OF AVAIL. CORE; ZERO HI BYTE
         LA    R9,ALLOCTAB         ALLOCATION TABLE
         LA    R6,ALLOC2-ALLOCTAB  INCREMENT
         LA    R7,ALLOCLST         END FOR BXLE
ALLOCATE LR    R5,R8               LENGTH OF CORE GOTTEN
         SR    R4,R4
         MH    R5,0(,R9)           % TO ALLOCATE TO THIS TABLE
         D     R4,HUNDRED          R5 = AMT. OF CORE IN BYTES FOR TBL.
         CH    R5,2(,R9)           R5 : MINIMUM
         BH    ALLOC01             >
         LH    R5,2(,R9)           DEFAULT TO MIN.
ALLOC01  CH    R5,4(,R9)           R5 : MAXIMUM
         BL    ALLOC02             <
         LH    R5,4(,R9)           USE MAX.
ALLOC02  LH    R3,6(,R9)           PUT BEGIN ADDRESS
         ST    R10,0(R2,R3)        WHERE IT GOES.
         LA    R5,3(,R5)           ROUND UP
         SRL   R5,MULT4            TO NEXT
         SLL   R5,MULT4            FULLWORD BDRY.
         AR    R10,R5              NEXT CORE AVAILABLE.
         LH    R3,8(,R9)           END ADDRESS
         LTR   R3,R3               NEEDED?
         BZ    ALLOC03             (NO)
         ST    R10,0(R2,R3)        SAVE IT.
ALLOC03  BXLE  R9,R6,ALLOCATE      FOR NEXT ENTRY.
         LH    R3,6(,R9)           TAKE CARE OF CESD NOW
         ST    R10,0(R2,R3)        START ADDRESS
         LH    R3,8(,R9)           END LOCATION
         LM    R7,R8,COREGOT
         AR    R7,R8               R7 = END ADDRESS
         ST    R7,0(R2,R3)         SAVE ADDRESS
         SPACE 2
         LA    R1,READBFR+TABLLN
         ST    R1,RCBFEND          END OF READ BUFFER
         L     R1,HEXTBLND
         S     R1,HEXTBLBG         - BEGIN ADDRESS
         SRL   R1,MULT4            / 4
         STH   R1,MAXENTS          # OF ENTRIES AVAILABLE.
         SPACE 2
         MVI   MESSAGE,BLANK
         MVC   MESSAGE+1,MESSAGE   BLANK OUT LINE
         MVI   ASTERISK,ASTRSK
         MVC   ASTERISK+1(15),ASTERISK  INSERT ******'S
         SPACE 2
         LA    R1,12               OPEN
         L     R15,V@IO            SYSPRINT, SYSLIB
         BALR  R14,R15
         SPACE 3
***** GET TIME AND DATE *****
         SPACE
         TIME  DEC
         SRL   R0,4                MOVE OVER FOR CORRECT UNPK.
         STM   R0,R1,ADAREA
         OI    ADAREA+7,SIGNBIT
         UNPK  SAVEDATE+1(5),ADAREA+5(3)
         MVC   SAVEDATE(2),SAVEDATE+1
         MVI   SAVEDATE+2,PERIOD   DATE IS IN SAVEDATE IN FORM YY.DDD
         UNPK  SAVETIME+2(6),ADAREA(4)
         OI    SAVETIME+7,SIGNBIT2
         MVC   SAVETIME(2),SAVETIME+2
         MVI   SAVETIME+2,COLON
         MVC   SAVETIME+3(2),SAVETIME+4
         MVI   SAVETIME+5,COLON    TIME IS IN SAVETIME AS HH:MM:SS
         SPACE 3
***** PROCESS PARAMETERS. *****
         SPACE
         XC    READBFR,READBFR     CLEAR READ BUFFER
         L     R15,V@OPT
         BALR  R14,R15             PROCESS OPTIONS
         SPACE
         MVC   LIST(12),BLDLCNT    INITIALIZE BLDL PARMS.
         TM    OPTSW,DECK          DECK OPTION?
         BZ    ITERATE
         LA    R1,24               OPEN SYSPUNCH
         L     R15,V@IO
         BALR  R14,R15
         SPACE 3
***** PROCESS ANOTHER NAME *****
         SPACE
ITERATE  MVC   BLDLMBRN,BLANKS     BLANK OUT MEMBER NAME
         LM    R7,R8,BEGNMBFR      NAME BUFFER
         SR    R9,R9
         IC    R9,0(,R7)           LENGTH OF THIS NAME
         S     R9,CON1             - 1
         EX    R9,MVCNAME
         LA    R7,2(R7,R9)         -> NEXT NAME
         ST    R7,BEGNMBFR         & SAVE
         CR    R7,R8
         BL    *+8                 NOT END OF PARMS
         OI    OPTSW,FINISH        YES.
         SPACE 3
***** DO BLDL AND CHECK ATTRIBUTES *****
         SPACE
         OI    SWITCHES,ERRLVL4    IF LEFT ON, RETURN CODE = 4
         LA    R1,20               ISSUE BLDL
         L     R15,V@IO
         BALR  R14,R15
         TM    BLDLATT1,OVLY       OVERLAY?
         BZ    NOTOVLY
         TM    BLDLATT2,NE         IS THERE A CESD?
         BO    NOTEDTBL
         NI    SWITCHES,ALLBITS-ERRLVL4  TURN OFF SWITCH
         SPACE 3
***** READ IN CESD; KEEP SD, CM, PC, PD; FIND EP. *****
         SPACE
         NI    INTERN1,ALLBITS-PCFIRST
         XC    ENTRY,ENTRY         RESET ENTRY NAME.
         LM    R6,R7,CESDADR
READ     LA    R4,READBFR          READ IN CESD
         LA    R3,TABLLN
         BAL   R14,READRTN
         CLI   0(R4),IDRREC        IS THIS AN IDR RECORD?
         BE    READ                YES, SKIP IT.
         CLI   0(R4),CNTRLREC      CONTROL RECORD?
         BE    CESDFULL
         LH    R9,6(,R4)           LENGTH OF ESD FIELDS
         L     R8,CON16            INCREMENT
         AR    R9,R4               ADDRESS + LENGTH
         A     R4,CON8             SKIP CONTROL INFORMATION
CHECK    CLI   ESDTYPE,PCDELETE    PD?
         BNE   PVT                 NO; CHECK FOR PC.
         TM    INTERN1,PCFIRST     FIRST PD ITEM?
         BO    ENDTAB              YES; GO.
         OI    INTERN1,PCFIRST     SET SWITCH
         MVC   ESDNAME,=CL8'$SEGTAB'  NAME IS $SEGTAB
         B     MOVE
ENDTAB   MVC   ESDNAME,=CL8'$ENTAB'  NAME IS $ENTAB
         B     MOVE
PVT      CLI   ESDTYPE,PC          PC?
         BNE   CLRBITS
         MVC   ESDNAME,=CL8'$PRIVATE'  NAME IS $PRIVATE
         B     MOVE
CLRBITS  NI    ESDTYPE,EDBITS      TURN OFF LKED FLAGS
         BZ    TESTEP              ZERO IF SD
         CLI   ESDTYPE,LR          LR?
         BE    TESTEP
         CLI   ESDTYPE,CM          CM?
         BNE   UPDATE
         CLI   ESDNAME,BLANK       BLANK COMMON?
         BNE   MOVE                NO; OK.
         MVC   ESDNAME,=CL8'$BLKCOM'  YES; NAME IS $BLKCOM
         B     MOVE
TESTEP   CLC   ESDLKAD,BLDLEP      IS THIS THE EP?
         BNE   NOTTHEEP
         MVC   ENTRY,ESDNAME       YES; SAVE NAME.
NOTTHEEP CLI   ESDTYPE,SD
         BNE   UPDATE              IF LR.
MOVE     MVC   0(16,R6),ESDENTRY   SAVE IN CESD BUFFER.
         XC    10(2,R6),10(R6)     SET TO 0 FOR PRINT POS.
         AR    R6,R8
         CR    R6,R7               NEXT SPACE IN CESD BUFFER
         BNL   MBOVRFLW            CESD BUFFER OVERFLOW.
UPDATE   BXLE  R4,R8,CHECK
         B     READ                READ IN ANOTHER RECORD.
         SPACE 3
***** READ IN SEGTAB; CALL IEWLDECK IF NEEDED. *****
         SPACE
CESDFULL ST    R6,CESDUSED         LENGTH USED.
         LH    R3,14(R4)           GET LENGTH OF SEGTAB FROM CCW.
         LM    R4,R5,SEGBFBEG
         LR    R8,R4               SEGTAB BUFFER BEGIN
         AR    R8,R3               + SEGTAB LENGTH
         CR    R8,R5               -- LARGE ENOUGH?
         BNL   SGBOVFLW            NO.
         BAL   R14,READRTN         READ IT IN.
         ST    R8,SEGUSED          SAVE UPPER LIMIT.
         TM    OPTSW,DECK          DECK WANTED?
         BZ    DECKOUT             NO.
         L     R15,V@DECK
         BALR  R14,R15             PRODUCE DECK.
         SPACE 3
***** REFORMAT SEGTAB: X'PPLLLLLL' WHERE PP = PREVIOUS SEG. #  *****
*****  AND LLLLLL = SEG. LENGTH *****
         SPACE
DECKOUT  MVC   REGION#,CON1+2      SET REGION # TO 1
         XC    READBFR,READBFR     CLEAR THE BUFFER FOR TR TABLE.
         MVC   READBFR+CHAR0(16),EBCDIC  MOVE CHARACTERS TO BUFFER
         L     R9,CON1             1ST SEG. #
         L     R10,CON16           INCREMENT FOR CESD
         L     R7,SEGBFBEG         BEGIN OF SEGTAB
         LA    R7,24(,R7)          + 24 -> SEG # 1
         L     R8,SEGUSED          END OF SEGTAB
         L     R11,CESDUSED        END OF CESD
         SR    R11,R10             -16 FOR BXLE
         L     R5,COREGOT
         A     R5,COREGOT+4        END OF CESD BUFFER -- CHECK OVFL.
         SR    R5,R10              -16 LIKE R11
OTP005   L     R4,CESDADR          BEGIN OF CESD TABLE
         SR    R3,R3               ZERO LENGTH COUNT
OTP006   SR    R1,R1
         IC    R1,ESDSGNO          INSERT SEG #
         CR    R1,R9               CURRENT SEG. #?
         BNE   OTP004              NO. GO.
         L     R1,ESDIDLN-1        LENGTH OF CTRL. SECTION
         LA    R1,7(,R1)           CLEAR HI-ORDER BYTE & ROUND UP.
         SRL   R1,3
         SLL   R1,3                TO A MULTIPLE OF 8
         AR    R3,R1               ADD TO LAST LENGTH
OTP004   BXLE  R4,R10,OTP006       INCREMENT CESD PTR & CONTINUE
         ST    R3,ADAREA           SAVE TOTAL LENGTH
         MVC   1(3,R7),ADAREA+1    & MOVE TO SEGTAB ENTRY
         UNPK  ADAREA(8),1(4,R7)   CONVERT TO HEX
         TR    ADAREA(7),READBFR   & MAKE PRINTABLE
         AR    R11,R10             ADD 16 TO CESD END.
         CR    R11,R5              OVERFLOW?
         BNL   MBOVRFLW            YES...
         MVI   0(R11),DOLLAR       CREATE A NEW CESD ENTRY
         MVC   1(6,R11),ADAREA+1   GIVING SEGMENT LENGTH
         MVI   7(R11),BLANK
         XC    8(8,R11),8(R11)     CLEAR REST OF LINE
         STC   R9,12(,R11)         & INSERT SEG. #
         A     R9,CON1             INCREMENT SEG #
         A     R7,CON4             & SEGTAB PTR.
         CR    R7,R8               END OF SEGTAB?
         BL    OTP005              NO; CONTINUE
         AR    R11,R10             ADD 16 TO FIX END OF CESD ADDR.
         ST    R11,CESDUSED        SAVE NEW END-OF-CESD PTR.
         SPACE 2
         LH    R8,REGION#
NXTREGN  MVI   MESSAGE,TRIPLE      MAKE SURE NOT AT TOP
         BAL   R14,PRTRTN          OF NEW PAGE ALREADY.
         STC   R8,MESSAGE+121      FOR HEADER LINE
         SLL   R8,1                DOUBLE FOR INDEX
         SR    R10,R10
         L     R3,SEGBFBEG         BEGIN OF SEGTAB
         IC    R10,6(R8,R3)        HIGHEST SEG. # IN THIS REGION.
         LTR   R10,R10             LAST REGION?
         BZ    IEWLQUIT            END FOR THIS MEMBER.
         STC   R10,HSNOPRCS        OTHERWISE, SAVE.
         SPACE 3
***** PRINT HEADER *****
         SPACE
         MVC   MESSAGE(30),=CL30'1 OVERLAY TREE PROCESSOR V 1.4'
         MVC   MESSAGE+62(8),BLDLMBRN  MEMBER NAME
         MVC   MESSAGE+114(6),=C'REGION'
         OI    MESSAGE+121,SIGNBIT2  MAKE REGION # PRINTABLE
         BAL   R14,PRTRTN          & PRINT IT ALL
         MVC   MESSAGE+2(4),=C'DATE'
         MVC   MESSAGE+7(6),SAVEDATE  MOVE IN DATE
         MVC   MESSAGE+15(4),=C'TIME'
         MVC   MESSAGE+20(8),SAVETIME  MOVE IN TIME
         BAL   R14,PRTRTN          & PRINT IT OUT
         MVI   MESSAGE,C'0'        DOUBLE-SPACE ON NEXT PRINT.
         BAL   R14,PRTRTN          & PRINT IT OUT
         L     R4,DEPREGS+4
         BAL   R6,CLEARCOR         CLEAR DEPENDENCY TABLE
         L     R4,PSREGS
         BAL   R6,CLEARCOR         CLEAR PSSRCHEL TABLE
         XC    DEPCNT(2),DEPCNT
         XC    PSRCHCNT(2),PSRCHCNT  CLEAR COUNTS
         MVC   0(4,R4),MIDLINE     SET UP 1ST SEARCH ELEMENT
         MVC   CEXTPTR(4),EXTBLBEG  SET PROCESSING PTR
         MVC   EXTPTR(4),EXTBLBEG  SET 'ADD TO' PTR
         SPACE 3
***** BUILD ALL TABLES USED TO PRODUCE MAP. *****
         SPACE
FND      MVI   SWITCHES,OFF        RESET SWITCHES
LOKSTRT  NI    DEPTEST,OFF         SET DEPTEST OFF
         LH    R8,PSRCHCNT         # OF ELEMENTS IN SRCH TBL
         LH    R11,DEPCNT          # OF DEPENDENCIES
         L     R9,DEPREGS+4        A(DEPEND)
         L     R5,PSREGS           A(PSSRCHEL)
NXTSRCH  L     R4,CESDADR          A(CESD)
COMPARE  CLC   ESDSGNO,HSNOPRCS    IN RANGE?
         BH    GETNXT              NO; SKIP.
         CLI   ESDSGNO,NULENTRY    SEG # 0?
         BE    GETNXT              YES; SKIP.
         SR    R1,R1
         IC    R1,ESDSGNO          SEG #
         BAL   R14,PREVSGN
         OI    SWITCHES,BUFUSED    INDICATE BUFFER USED.
         CLC   PSGT(1),0(R5)       COMPARE WITH SEARCH ELEMENT
         BNE   GETNXT              ¬=? SKIP.
         IC    R14,ESDSGNO         SAVE IN R14
         LR    R10,R9              A(DEPEND)
         LR    R7,R11              FOR BCT
CNXTDEP  CLC   ESDSGNO,0(R10)      IS SEG # IN TABLE?
         BE    GETNXT              YEAH; SKIP.
         STC   R14,DEPTEST         SAVE SEG #
         A     R10,CON4            ADD 4 TO ADDRESS
         LTR   R7,R7
         BZ    *+8                 END OF TABLE? IF SO, SKIP BCT
         BCT   R7,CNXTDEP          CHECK REST OF TABLE
         CLI   DEPTEST,NOENTRYS    ANY ENTRY FOUND?
         BE    GETNXT              NO; SKIP.
         LR    R1,R11
         SLL   R1,MULT4            X 4
         STC   R14,0(R1,R9)        SAVE SEG # IN DEPEND
         A     R11,CON1            UPDATE
         CH    R11,MAXDEPLN        TOO LARGE?
         BH    DEPOVFLW            YEAH.  TUFF.
         IC    R0,1(,R5)           GET COUNT
         A     R0,CON1             ADD 1
         STC   R0,1(,R5)           & SAVE IT.
         NI    DEPTEST,OFF         SET OFF
GETNXT   A     R4,CON16            NEXT IN CESD
         C     R4,CESDUSED         END OF CESD BUFFER?
         BL    COMPARE             NO.
         A     R5,CON4             NEXT SEGTAB ENTRY
         LTR   R8,R8
         BZ    *+8
         BCT   R8,NXTSRCH          LOOK AGAIN.
         STH   R11,DEPCNT          SAVE COUNT.
         SPACE 3
***** ALL SELECTED ENTRIES ARE IN BUFFER.  SORT ENTRIES *****
*****   AND CALCULATE PRINT POSITIONS.                  *****
         SPACE
END      TM    SWITCHES,BUFUSED    BUFFER USED?
         BZ    CHKEXT              END OF REGION; CK EXTENSIONS.
         SPACE
***** SORT: *****
*         1) BY # ENTRIES IN PSSRCHEL (MAJOR)
*         2) BY # DEPENDENCIES PSSRCHEL+1 (INT)
         SPACE
         L     R3,DEPREGS+4        A(DEPEND)
         LM    R4,R5,PSREGS        A(PSSRCHEL,PSRCHCNT)
         SLL   R5,MULT4            X 4
         AR    R5,R4               = END OF TABLE
MAJOR    SR    R7,R7               INDEX FOR INTERMEDIATE
         IC    R7,1(,R4)           # DEPENDENCIES
         LTR   R7,R7
         BZ    NOSORT              SKIP IF 0.
INT      LR    R6,R7               LOOP COUNT
         LR    R8,R3               A (LAST WINNER)
MINOR    CLC   0(1,R3),0(R8)       COMPARE WINNER WITH NEXT CHALLENGER
         BNH   WONAGAIN            UPDATE CHALLENGER
         XC    0(4,R8),0(R3)       IF CHALLENGER LESS,
         XC    0(4,R3),0(R8)       SWAP WINNER
         XC    0(4,R8),0(R3)       FOR CHALLENGER
WONAGAIN A     R8,CON4             ADD 4 TO A(CHALLENGER)
         BCT   R6,MINOR            MINOR LOOP
         A     R3,CON4             ADD 4 TO A(WINNER)
         BCT   R7,INT              INTERMEDIATE LOOP
NOSORT   A     R4,CON4             ADD 4 TO A(SEARCH TABLE)
         CR    R4,R5               END OF TABLE?
         BL    MAJOR               MAJOR LOOP.
         SPACE
* END OF SORT
         SPACE
         LM    R5,R7,PSREGS-4
LOOKUP   CLI   1(R6),ONE           ONLY ONE ELEMENT DEPENDENT?
         BL    LOOK                IF 0 DO NOT UPDATE ADDRESSES
         BH    ALTFORM             IF NOT USE ALTERNATE FORMULA
         MVC   2(2,R5),2(R6)       MOVE LINE COUNT
         A     R5,CON4             UPDATE PS TOL ADR FOR NXT SRCH ELMNT
LOOK     A     R6,CON4             UPDATE FOR NEXT ELEMENT
         LTR   R7,R7               ZERO?
         BZ    *+8                 IF SO, SKIP BCT
         BCT   R7,LOOKUP           CONTINUE UNTIL EXHAUSTED
         SPACE 3
***** OFLWCHK *****
* DEPEND HAS BEEN BUILT; PRINT POSITIONS ARE IN ALL PRINTABLE SEG. #S.
*  UNPRINTABLE SEG. #S ARE REMOVED TO HEXTPRCS FOR LATER PROCESSING
*  BY HEXTPRCS.
         SPACE
OFLWCHK  LM    R3,R4,PSREGS
         TM    SWITCHES,LOOKAHED   LOOKAHEAD REQUESTED?
         BO    LOKAHED1
         L     R8,DEPREGS+4        A(DEPEND)
         L     R9,HEXTBLBG         EXTENSION TABLE
LOOP01   SR    R6,R6
         IC    R6,1(,R3)           # OF DEPENDENT SEG. #S
         LTR   R6,R6
         BZ    TESTCNT             IF ZERO.
COMP04   CLC   2(2,R8),MAXPOS      < MAX. POSITION?
         BNL   OVERFLOW            NO; PUT IN TABLE
         CLC   2(2,R8),MINPOS      > MINIMUM POSITION?
         BL    OVERFLOW            NO; PUT IN TABLE
         A     R8,CON4             UPDATE ADDRESS
NEXTNTRY BCT   R6,COMP04           BCT ON # DEP.
TESTCNT  A     R3,CON4             UPDATE PSSRCHEL ADDRESS
         LTR   R4,R4               ZERO?
         BZ    *+8
         BCT   R4,LOOP01           TOTAL # ENTRIES IN PSSRCHEL.
         SPACE 3
***** FIND CSECTS W/ SEG. # = CURRENT SEARCH SEG. #.    *****
*****   IF EQUAL, MOVE FROM DEPEND TO CSECT POS. IN BUFFER *****
         SPACE
CYCLEFIL LM    R6,R7,DEPREGS
NTBLENT  L     R8,CESDADR
MATCH    CLC   12(1,R8),0(R7)      = SEARCH SEG. #?
         BNE   PASS1
         MVC   10(2,R8),2(R7)      MOVE LINE POS. TO BUFFER
PASS1    A     R8,CON16            UPDATE BUFFER PTR.
         C     R8,CESDUSED         LAST ENTRY?
         BL    MATCH
         A     R7,CON4             INCREMENT THIS ALSO.
         LTR   R6,R6
         BZ    *+8
         BCT   R6,NTBLENT
         SPACE 3
***** PRINT ROUTINE *****
*   AN ITEM WILL BE PRINTED OUT IF:
*     1) IT IS NOT NULL, AND
*     2) ITS PRINT POS. ¬= 0, AND
*     3) AT LEAST 8 SPACES FREE AT THE PRINT POS.
         SPACE
         NI    SWITCHES,ALLBITS-SEGIN  TURN OFF SEG-#-PRINTED SW.
PRINTMGR L     R6,CESDADR
         LA    R5,MESSAGE
PLCELINE LR    R7,R5               RESTORE POINTER
         CLI   12(R6),NULENTRY     NULL (= PRINTED) ?
         BE    UPDTEBAC            IF SO, SKIP.
         CLC   10(2,R6),MINPOS     < MIN. POS.?
         BL    UPDTEBAC            IF SO, SKIP
         AH    R7,10(,R6)          ADD LINE POS. TO MESSAGE PTR.
         CLC   0(8,R7),BLANKS      8 FREE SPACES?
         BNE   UPDTEBAC            IF NOT SKIP
         TM    SWITCHES,SEGIN      SEG. #S PRINTED YET?
         BZ    ICSGNO              NO; DO IT.
MOVEINLN MVC   0(8,R7),0(R6)       MOVE IN CSECT NAME
         OI    SWITCHES,LINFULL    ITEM IN LINE
         MVI   12(R6),NULENTRY     INDICATE MOVED BY SETTING NULL
UPDTEBAC A     R6,CON16            UPDATE BUFFER ADDRESS
         C     R6,CESDUSED         END OF CESD BUFFER?
         BL    PLCELINE            NO; PLACE NEXT ITEM IN LINE.
         TM    SWITCHES,LINFULL    ANYTHING IN LINE?
         BO    WRITE               IF SO, PRINT IT.
         CLI   DEPCNT+1,NOENTRYS   ANY DEPENDENCIES?
         BE    CHKEXT              NO; CHECK EXTENSIONS.
         BAL   R15,SWAP            SWAP TABLES
         B     FND
         SPACE 3
***** CHECK FOR SPLITS OFF PREVIOUS SEG #S WHICH COULDN'T PRINT *****
         SPACE
CHKEXT   LM    R4,R5,CEXTPTR       BEGIN ADDR & CURRENT PRCS. ADDR
         CR    R4,R5               = ?
         BE    HEXTPRCS            IF SO, ADDRESSES THE SAVE # ENTRIES
         BAL   R14,EDIT            EDIT SEG #
PRINTSGN MVI   MESSAGE,TRIPLE      TRIPLE SPACE
         MVC   MESSAGE+52(30),=15C'- '  A LINE OF -'S
         BAL   R14,PRTRTN          & PRINT IT.
         MVI   MESSAGE,TRIPLE      TRIPLE SPACE AGAIN.
         TM    SWITCHES,SPECON     SPECIAL PROCESSING?
         BZ    VERT                NO; USE VERTICAL MSG.
         MVC   MESSAGE+60(12),=C'*HORIZONTAL*'  HORIZONTAL MSG
         B     PRT
VERT     MVC   MESSAGE+60(12),=C'* VERTICAL *'  VERTICAL MSG
PRT      BAL   R14,PRTRTN          PRINT IT.
         MVC   MESSAGE+59(15),=C'EXTENSION UNDER'
         BAL   R14,PRTRTN
         CLC   EDITSEG#(4),BLANKS  UNDER REGION ORIGIN?
         BNE   PRT1                NO.
         MVC   MESSAGE+60(13),=C'REGION ORIGIN'  YES.
         B     PRT2
PRT1     MVC   MESSAGE+60(9),=C'SEGMENT #'
         MVC   MESSAGE+69(3),EDITSEG#+1  MOVE IN SEG #
PRT2     MVC   EDITSEG#(4),PATTERN  & RESTORE PATTERN
         BAL   R14,PRTRTN
         TM    SWITCHES,SPECON     SPECIAL PROCESSING?
         BO    PRINTED
         L     R1,PSREGS
         MVC   0(4,R1),0(R4)       MOVE SEG # TO SEARCH TABLE
         MVC   2(2,R1),MIDLINE+2   CENTER PRINT POS.
         MVC   PSRCHCNT(2),CON1+2
         A     R4,CON4             UPDATE TABLE ADDRESS
         ST    R4,CEXTPTR          SAVE UPDATED PTR
         XC    DEPCNT(2),DEPCNT    CLEAR COUNT FIELD
         B     FND
         SPACE 3
***** CHECK FOR SEGMENTS > HORIZ. LENGTH OF PAGE.     *****
*****  IF SO, START NEW GROUP, W/ 8 ENTRIES ACROSS.   *****
         SPACE
HEXTPRCS CLI   HEXTCNT+1,NOENTRYS  ANY ENTRIES?
         BE    ENDRGN              NO; GO TO NEXT REGION.
         L     R4,PSREGS
         BAL   R6,CLEARCOR         CLEAR PSSRCHEL TABLE
         L     R4,HEXTBLBG         HEXT. TABLE ADDR.
         L     R7,PSREGS
         MVI   0(R7),ALLBITS       INIT. PREV. SEG # TO 255.
         LH    R9,HEXTCNT          # ENTRIES IN HEXTBL
         SR    R10,R10             WILL CONTAIN NEW PSSRCHEL
LOOP1    LR    R5,R7               A(PSSRCHEL)
         LR    R8,R10              PSRCHCNT
         SR    R1,R1
         IC    R1,0(,R4)           SEG. #
         BAL   R14,PREVSGN         GET PREV. SEG. #
LOOP2    CLC   PSGT(1),0(R5)       THIS = ENTRY IN PSSRCHEL?
         BNE   NOTEQUAL
         IC    R0,1(,R5)           GET COUNT
         A     R0,CON1             ADD 1
         STC   R0,1(,R5)           & SAVE IT.
ADD01    A     R4,CON4             UPDATE COUNT
         LTR   R9,R9               ZERO?
         BZ    *+8
         BCT   R9,LOOP1
         STH   R10,PSRCHCNT        SAVE TOTAL COUNT
         BAL   R14,MOVER3          HEXTBL -> DEPEND
         MVC   DEPCNT(2),HEXTCNT   SET COUNT
         XC    HEXTCNT(2),HEXTCNT  ZERO IT.
         L     R4,PSREGS
         BAL   R14,EDIT            EDIT SEG. #
         OI    SWITCHES,SPECON     SPECIAL PROCESSING
         B     PRINTSGN            PRINT HEADING
* RTN PLACES PAGE POSITION IN PSSRCHEL.
PRINTED  L     R4,PSREGS
         MVC   2(2,R4),MIDLINE+2   CENTER PAGE POS.
         MVI   SWITCHES,BUFUSED    BUFFER USED
         B     END                 PROCESS ENTRIES
         SPACE 2
NOTEQUAL A     R5,CON4             UPDATE PSSRCHEL ADDRESS
         LTR   R8,R8               ZERO?
         BZ    *+8
         BCT   R8,LOOP2
         LR    R1,R10              NO ENTRIES IN PSSRCHEL
         SLL   R1,MULT4            X 4
         AR    R1,R7               + BEGIN OF PSSRCHEL
         MVC   0(1,R1),PSGT        MOVE SEG. # TO TABLE
         MVI   1(R1),ONE           ONE DEPENDENCY
         A     R10,CON1            ADD ONE TO COUNT
         B     ADD01
         SPACE 3
***** TO NEXT REGION *****
         SPACE
ENDRGN   LH    R8,REGION#
         A     R8,CON1             INCREMENT REGION #
         STH   R8,REGION#
         C     R8,CON4             > 4?
         BNH   NXTREGN             NO; PROCESS NEXT REGION.
         SPACE
IEWLQUIT TM    SWITCHES,ERRLVL4    LEVEL 4 ERROR?
         BZ    NEXTMBR             NO.
         OI    RETCODE+1,FOUR      YES. SET IT.
NEXTMBR  TM    OPTSW,FINISH        DID LAST MEMBER?
         BZ    ITERATE             NO; CONTINUE
         SPACE
         NI    RETCODE+1,FOUR      LEAVE ON ONLY RET. CODE OF 4
IEWLDONE L     R1,CON16            CLOSE
         L     R15,V@IO            FILES.
         BALR  R14,R15
         SPACE
***** FREE CORE *****
         SPACE
         FREEMAIN V,A=COREGOT,SP=SP1  FREE TABLES
         L     R13,SAVEAREA+4      RESTORE R13 BEFORE FREEING CORE.
         FREEMAIN R,LV=DSECTEND-DSECT,A=(R2),SP=SP1  FREE DSECT
         LH    R15,RETCODE         SET RETURN CODE.
         RETURN (14,12),T,RC=(15)  RETURN TO O.S......
         SPACE 5
***** READ ROUTINE *****
         SPACE
READRTN  L     R1,CON8
         L     R15,V@IO
         BR    R15                 READ IN FROM SYSLIB
         SPACE 3
***** PRINT ROUTINE *****
         SPACE
PRTRTN   SR    R1,R1
         L     R15,V@IO
         BR    R15                 PRINT A LINE
         SPACE 5
***** ICSGNO *****
*   THIS ROUTINE INSERTS AN * BENEATH THE SEGMENT BEING CONTINUED,
*     AND BUILDS A LINE OF SEGMENT NUMBERS.
         SPACE
ICSGNO   STM   R5,R7,ICSAVE
         MVC   MSAVE,MESSAGE       RESET MESSAGE SAVE AREA
         LM    R3,R4,DEPREGS
KEEPFIL  BAL   R14,EDIT            EDIT SEG #
         LA    R9,MSAVE            MESSAGE SAVE AREA
         AH    R9,2(,R4)           + PRINT POS. OF CSECT NAME
         MVC   2(3,R9),EDITSEG#+1  SEGMENT #
         MVC   EDITSEG#(4),PATTERN  RESTORE PATTERN
         LR    R1,R6               SEGMENT #
         BAL   R14,PREVSGN         GET PREVIOUS SEG. #
         LA    R14,PAZLN           RETURN ADDRESS
         LM    R7,R8,PSREGS
CHECKER  CLC   PSGT(1),0(R7)       IS THIS THE ONE I WANT?
         BE    INSRTASK            IF SO, PUT IN *
         LTR   R8,R8               IS COUNT 0?
         BZ    PAZLN               IF SO, SKIP BCT
         A     R7,CON4             ADD 4 TO ADDRESS
         BCT   R8,CHECKER
PAZLN    A     R4,CON4             + 4 FOR NEXT DEPENDENCY
         LTR   R3,R3
         BZ    *+8
         BCT   R3,KEEPFIL
         BAL   R14,PRTRTN          PRINT OUT LINE
         MVC   MESSAGE,MSAVE       WRITE OUT * AT PSG LOCATION
         SPACE
***** INSERT HORIZONTAL LINE OF ASTERISKS *****
*  READ BUFFER IS USED AS TRT TABLE; SEGMENT #S ARE CONNECTED.
         SPACE