)ATTR DEFAULT(%+_)
  $ TYPE(TEXT)   INTENS(HIGH) COLOR(PINK)
  _ TYPE(INPUT)  INTENS(HIGH) COLOR(YELLOW) CAPS(ON)
  % TYPE(TEXT)   INTENS(HIGH) COLOR(WHITE)
  ¼ TYPE(TEXT)   INTENS(HIGH) COLOR(RED)
  + TYPE(TEXT)   INTENS(LOW)  COLOR(TURQ)
  ~ TYPE(TEXT)   INTENS(LOW)  COLOR(YELLOW)
  | TYPE(TEXT)   INTENS(HIGH) COLOR(BLUE)
  @ TYPE(OUTPUT) INTENS(LOW)  COLOR(BLUE)
)BODY EXPAND(\\) ASIS
¼\-\~ D A S D   S P A C E ¼\-\
%COMMAND ===>_ZCMD                                            %SCROLL ===>_ZUSC+
%                                                                              +
|Storage%===>_NAME                                                             +
+                       (Volser/UCB Addr/Online/Private/Public/Storage & w/mask)
|                                                                              +
|Sort by%===>_Z+        (1=Volser, 2=Device Numb, 3=Free Cyls, 4=Maximum-Contig)
%                                                                              +
|Type "S" or "B" next to one or more VOLSERs to display a list of data sets.
%                                                                              +
%                 DEVC   IX    MOUNT   FREE   FREE    EXT     MAXMUM-CONTIG
%        VOLSER   NUMB  VTOC   ATTR    CYLS   TRKS    NUM     CYLS   TRKS
+===============================================================================
)MODEL
      _S@Z       @Z      @Z   @Z      @Z     @Z      @Z      @Z     @Z
)INIT
 .CURSOR  = NAME
 .HELP    = FDSPACH1
 &S       = ' '
 .ZVARS   = '(SORT,VOLUME,UCB,VTOC,ATTR,CYL,TRK,EXT,CYLC,TRKC)'
 IF (&SORT = &Z)
   &SORT = 1
 IF (&SORT ¼= ' ')
   VGET (SORT,OLDSORT) SHARED

 &OLDNAME = &NAME
 &OLDSORT = &SORT

)REINIT
 REFRESH (*)
 IF (&S = ' ')
   .CURSOR = NAME
 &S = ' '
 IF (&SORT = &Z)
   &SORT = 1
 IF (&SORT ¼= ' ')
   VGET (SORT,OLDSORT) SHARED

)PROC
 VER (&SORT,LIST,1,2,3,4,MSG=FDS002)
 VER (&S,LIST,B,S,MSG=FDS003)

 IF (&NAME = &Z)
   &NAME = '&OLDNAME'
 IF (&SORT = &Z)
   &SORT = '&OLDSORT'
 &S = ' '

 VPUT (SORT,S,OLDNAME,NAME,OLDSORT,SORT) SHARED

)END
/* ----------------------------------------------------------------- */
/*                                                                   */
/* --------------------------------------------------                */
/* DSPACE TSO Command Processor ISPF Front-End Dialog                */
/* --------------------------------------------------                */
/*                                                                   */
/* - Updated 06Oct14, William J. Smith                               */
/*   . Tested:  z/EC12 (2827-HA1) - z/OS 02.01.00 / HJE7790 ISPF 7.1 */
/*   . Emulator:  Rumba Desktop 8.3.0 (Micro Focus) / Windows 7      */
/*                                                                   */
/* - Updated 10Jun03, Sam Golob                                      */
/*   . After entering S or B next to a Volume, blank the &S field    */
/*     for next time.                                                */
/*                                                                   */
/* - Updated 20May95, William J. Smith                               */
/*   . Source:  SHARE CBTMODS tape no. 426, file 369                 */
/*   . Author:  Unknown                                              */
/*   . Tested:  z/Series T/REX running z/OS 1.3, TSO/E 3.3, ISPF 5.2 */
/*   . Updated for use with 4-byte UCBs, eliminated restriction on   */
/*     specifying a single volume serial number on the panel, and    */
/*     incorporated both color and support for mount status.         */
/*   . Incorported support for LMDDISP service to display data sets  */
/*     on the volume.                                                */
/*                                                                   */
/* -----------------------------------                               */
/* Return codes for the DSPACE command                               */
/* -----------------------------------                               */
/*                                                                   */
/*   0  Processing successful.                                       */
/*   8  VOLSER, UCB, OR UNIT NOT FOUND, IGNORED.                     */
/*  12  IKJ56702I INVALID VOLUME,                                    */
/*      TSO PARSE ERROR, PROGRAM TERMINATED.                         */
/*                                                                   */
/* ----------------------------------------------------------------- */
