         MACRO
&NAME    $WA   &DUMMY
         COPY  $MGBLDEF            BRING IN THE CLOWNS (VERSIONS 1 & 2)
         GBLC  &GSECT,&WSECT       PRESET NAMES (VERSION 2)
         AIF   ('&$MSECT(1)' EQ '').GENLOC
DATAAREA CSECT                     WORKING-STORAGE CSECT
         MEXIT
.GENLOC  AIF   ('&GSECT' NE '').GEN2 GO IF ALREADY DEFINED
&GSECT   SETC  'GSECT'             GIVE IT A VALUE - ANY VALUE...
&GSECT   LOCTR                     INSTRUCTION AREA LOCATION COUNTER
.GEN2    AIF   ('&WSECT' NE '').GEN3 GO IF ALREADY DEFINED
&WSECT   SETC  'WSECT'             GIVE IT A VALUE - ANY VALUE...
.GEN3    AIF   ('&$MLOCTR' EQ '&WSECT').MEND
&$MLOCTR SETC  '&WSECT'
&WSECT   LOCTR                     WORKING-STORAGE LOCATION COUNTER
.MEND    MEND
