         MACRO
&NAME    ADDR  &REG,&ADDR          GET ADDRESS INTO REG
         AIF   ('&ADDR'(1,1) NE '(').NOTGPR GO IF NOT GPR
         AIF   ('&ADDR(1)' NE '&REG').DOLR FALL THROUGH IF LR NOT REQ'D
         AIF   ('&NAME' EQ '').MEND
&NAME    DC    0H'0'               DEFINE TAG
         MEXIT
.DOLR    ANOP
&NAME    LR    &REG,&ADDR(1)       LOAD VALUE TO CORRECT REGISTER
         MEXIT
.NOTGPR  ANOP
&NAME    LA    &REG,&ADDR(1)       LOAD VALUE INTO REGISTER
.MEND    MEND
