         MACRO
&NAME    BHE   &ADDR
&NAME    BNL   &ADDR
         MEND
