         MACRO
&NAME    BLE   &ADDR
&NAME    BNH   &ADDR
         MEND
