         MACRO
&NAME    CONTINUE &DUMMY
&NAME    DC    0H'0',0C' &DUMMY'
         MEND
