         MACRO
&NAME    CVXREGS &DUMMY            CREATE HEX DUMP OF GPRS
         GBLB  &$CVXRSW            DEFINE A SWITCH
         GBLC  &SUBCALL            WHICH TYPE?
&NAME    STM   R0,R15,$CVXSAVE     SAVE ALL 16
         LA    R1,$CVXSAVE         ADDRESS OF REG 0
         MVC   $CVXMSG,=CL10'REGS 0-7' FLAG DATA
         MVI   CCCHAR,C'0'         DOUBLE SPACE FIRST LINE
      &SUBCALL CVXLINE             DUMP FIRST 8
         LA    R1,$CVXSAVE+32      ADDRESS OF REG 8
         MVC   $CVXMSG,=CL10'REGS 8-15' FLAG DATA
      &SUBCALL CVXLINE             DUMP LAST 8
         LM    R0,R15,$CVXSAVE     RESTORE
         AIF   (&$CVXRSW).MEND     SKIP IF ALREADY DEFINED
&$CVXRSW SETB  (1)                 SHOW DEFINED
         $WA
$CVXSAVE DC    16F'0'              SAVE AREA FOR ALL 16
         $IA                       RETURN TO PGM CSECT
.MEND    MEND
