         MACRO
&NAME    DUMPMAIN &OPNDS
         LCLA  &A,&B,&C
         LCLC  &X,&Y
&A       SETA  N'&SYSLIST
         AIF   (&A EQ 2*(&A/2)).OK10
         MNOTE 8,'OPERANDS NOT PAIRED - MACRO GENERATION TERMINATED'
         MEXIT
.OK10    ANOP
         CNOP  0,4                 ALIGNMENT FOR ADDRESS CONSTANTS
&NAME    STM   &R0,&R15,*+8        SAVE REGS AS-IS
         BAS   &R1,*+72+&A*4       R1 WILL ADDRESS SAVE AREA
         DC    16A(0)              SAVE ALL 16
         DC    AL1(&A),AL3(0)      NUMBER OF OPERANDS
&B       SETA  1                   LET'S START AT THE BEGINNING
.LOOP20  ANOP
&C       SETA  &B+1
         DC    A(&SYSLIST(&B),&SYSLIST(&C))
&B       SETA  &B+2
         AIF   (&B LT &A).LOOP20
         DC    V(DUMPREGS)         ADDRESS OF SUBROUTINE
         L     &R15,*-4            COPY ADDRESS OF SUBROUTINE
         BASR  &R14,&R15           TRANSFER TO SUBROUTINE
         LM    0,15,*-78-&A*4      RESTORE REGS TO PRISTINE
         MEND
