         MACRO
&NAME    ENDP  &PROC               MUST BE LAST STMT WITHIN A 'PROC'
         COPY  $MGBLDEF
         LCLC  &Y
         VERSION 1
&$MPCSV(&$MPLVL) SETA  0           SHOW 'NOT WITHIN PROC'
&$PROCNM(&$MPLVL) SETC  ''         ERASE PROC NAME
         AIF   (&$MDGLVL EQ 0).SKIP10 GO IF NO DO-GROUPS TO END
         MNOTE 4,'&$MDGLVL DO-GROUP(S) ENDED'
         ENDO  DOGROUP=*ALL*
.SKIP10  ANOP
&NAME    RETN  ,                   RETURN TO CALLER
         DROP  &$USING(&$MPLVL)    DROP CURRENT BASE REG(S)
&$MPLVL  SETA  &$MPLVL-1
         LTORG
&Y       SETC  '&$MSECT(&$MPLVL)'
&Y       CSECT                     BACK TO PREV CSECT
         AIF   ('&Y' EQ 'DATAAREA').MEND
         USING &Y,&$USING(&$MPLVL) REESTABLISH ADDRESSABILITY
.MEND    MEND
