         MACRO
&NAME    ENDSECT &DUMMY            ROUTINE TO END A SECTION
         COPY  $MGBLDEF
         GBLC  &GSECT,&WSECT       SECTION NAMES
         GBLC  &GRETN,&GSKIP       RETRIEVE NAMES
         VERSION 2
         AIF   (&$MDGLVL EQ 0).SKIP10 GO IF NO DO-GROUPS TO END
         MNOTE 4,'&$MDGLVL DO-GROUP(S) ENDED'
         ENDO  DOGROUP=*ALL*
.SKIP10  ANOP
&NAME    B     &GRETN              RETURN TO CALLER
         LTORG
&GSKIP   DC    0H'0'               TAG FOR END OF SECTION
&GRETN   SETC  ''                  SHOW SECTION HAS ENDED
         MEND
