         MACRO
&NAME    EVERY &VAR
         COPY  $MGBLDEF            BRING IN THE CLOWNS
         GBLC  &TRACE              CONTROLS TRACING OUTPUT
&LCLV    SETC  '&VAR'              SET TO COUNT
         AIF   ('&VAR'(1,1) GE '0').NEXT010 GO IF SELF-DEFINING
&LCLV    SETC  '1'                 DO EVERY TIME
.NEXT010 ANOP
&$MDGLVL SETA  &$MDGLVL+1          INCREMENT LEVEL
&$MDGSEQ(&$MDGLVL) SETC '&SYSNDX'
&$MIFELS(&$MDGLVL) SETC 'F'
&$MDGNAM(&$MDGLVL) SETC '&NAME'
&$MCVERB(&$MDGLVL) SETC 'EVERY'
         AIF   ('&TRACE' NE 'YES').SKIP020
         DC    0C'$MDGLVL &$MDGLVL $MDGNAM &$MDGNAM(&$MDGLVL)'
.SKIP020 ANOP
&X       SETC  '$MDV&SYSNDX'       MAKE IT PRETTY
&NAME    SP    &X,=P'1'            DECREMENT
         JP    $MDF&SYSNDX         B IF NOT YET TIME
         MVC   &X,=P'&LCLV'        RESET
DATA     LOCTR                     ENTER WORK AREA
&X       DC    P'&LCLV'            FREQUENCY COUNTER
&SYSECT  LOCTR                     RESUME INSTRUCTION AREA
         MEND
