         MACRO
&NAME    EXIT  &RC=
         GBLC  &GSECT,&WSECT       LOCATION COUNTER NAMES
         VERSION 2
         AIF   ('&RC' NE '').SKIP10
&NAME    SLR   15,15               SET ZERO RETURN CODE
         AGO   .RETURN
.SKIP10  AIF   ('&RC'(1,1) EQ '(').GPR
&NAME    LA    15,&RC              SET USER SPECIFIED RETURN CODE
         AGO   .RETURN
.GPR     ANOP
&NAME    LR    15,&RC(1)           SET USER SPECIFIED RETURN CODE
.RETURN  L     13,4(,13)           BACK CHAIN
         L     14,12(,13)          RESTORE 14
         LM    0,12,20(13)         RESTORE REMAINING REGS
         BR    14                  EXIT PROGRAM
         LTORG
         AIF   (D'R0).SKIP20       GENERATE EQUATE STATEMENTS
         EQUATE ,                  . IF NECESSARY
.SKIP20  MEND
