         MACRO
&NAME    GOBACK &RC=
         GBLC  &GSECT,&WSECT       LOCATION COUNTER NAMES
         GBLC  &N                  NAME
&N       SETC  '&NAME'             SET TO USER DEFINED NAME
         VERSION 2
         AIF   ('&RC' EQ '').RETURN
&N       SETRC &RC                 SET RETURN CODE
&N       SETC  ''                  NULLIFY
.RETURN  ANOP
&N       L     13,4(,13)           BACK CHAIN
         LM    14,12,12(13)        RESTORE 14 THRU 12
         BR    14                  EXIT PROGRAM
         $WA
         LTORG
         $IA
         AIF   (D'R0).SKIP20       GENERATE EQUATE STATEMENTS
         EQUATE ,                  . IF NECESSARY
.SKIP20  MEND
