         MACRO                                                  SOS  00
&NAME    I     &REG,&INCR          BUMP REG &REG BY &INCR       SOS  00
         AIF   ('&INCR' EQ '').ONEPARM GO IF BUMP BY 1          SOS  00
&NAME    LA    &REG,&INCR.(,&REG)  BUMP BY INCREMENT            SOS  00
         MEXIT                                                  SOS  00
.ONEPARM ANOP  COME HERE IF INCREMENT BY 1                      SOS  00
&NAME    LA    &REG,1(,&REG)       UP IT BY 1                   SOS  00
         MEND                                                   SOS  00
