         MACRO
&NAME    IP    &VAR,&AMOUNT        INCREMENT PACKED COUNTER BY AMOUNT
         AIF   ('&AMOUNT' EQ '').ONE '1' IS DEFAULT AMOUNT
&NAME    AP    &VAR,=P'&AMOUNT'    INCR BY SPECIFIED AMOUNT
         MEXIT
.ONE     ANOP
&NAME    AP    &VAR,=P'1'          INCR BY ONE
         MEND
