         MACRO
&NAME    NEXT  &SENT
         COPY  $MGBLDEF
         AIF   ('&SENT' EQ 'SENTENCE').SKIP010
         MNOTE 8,'''SENTENCE'' IS THE ONLY VALID PARM - ''&SENT'' INVALC
               ID; MACRO ABORTED'
         MEXIT
.SKIP010 AIF   (&$MDGLVL EQ 0).SKIP020
&NAME    B     $MDF&$MDGSEQ(1)       B TO END OF OUTERMOST DO-GROUP
         MEXIT
.SKIP020 MNOTE *,'NEXT SENTENCE HAS NO FUNCTION IN OPEN CODE'
         MEND
