         MACRO
&NAME    RTTINCR &KEYWORD,&AMOUNT  FIND TABLE ENTRY THEN INCREMENT
&NAME    IP    &KEYWORD,&AMOUNT    INCR BY SPECIFIED AMOUNT
         MEND
