         MACRO
&NAME    RTTRESET &KEYWORD         RESET ONE OR ALL COUNTERS
         COPY  $MGBLDEF
         GBLA  &RTTTL,&RTTCL,&RTTTOTL LENGTHS OF DATA ITEMS
         GBLC  &RTTNAME            NAME OF TABLE
         AIF   ('&KEYWORD' EQ '').NEXT010 GO IF ENTIRE TABLE REQUESTED
&NAME    PACK  &KEYWORD,=Z'0'      SET COUNTER TO ZERO
         AIF   ('&SYSLIST(2)' EQ '').MEND EXIT IF ONLY ONE
&I       SETA  2                   START LOOP WITH 2ND NAME
.LOOP000 PACK  &SYSLIST(&I),=Z'0'  SET REQUESTED COUNTER TO ZERO
&I       SETA  &I+1                BUMP INDEX
         AIF   ('&SYSLIST(&I)' NE '').LOOP000 BACK IF MORE TO DO
         MEXIT
.NEXT010 ANOP
&NAME    LA    &R1,&RTTNAME
         DO    UNTIL=(CL,&R1,=A(&RTTNAME._END),NL)
           PACK  &RTTNAME._COUNTER-&RTTNAME._DSECT(,&R1),=Z'0'
           I     &R1,&RTTTOTL
         ENDO  ,
.MEND    MEND
