         MACRO
&NAME    SETRC &RC,&RESET
         COPY  $MGBLDEF
&NAME    L     R14,4(,R13)         CHAIN BACK TO PREV SAVE AREA
         VAL   R15,&RC             GET RETURN CODE INTO REG
         AIF   ('&RESET' EQ 'RESET').RESET
         IF    (CL,R15,16(,R14),H),THENDO DO IF NEW HIGH
           ST    R15,16(,R14)      SAVE RETURN CODE
         ENDO  ,
         AGO   .MEND               QUIT
.RESET   ANOP
         ST    R15,16(,R14)        SET NEW RETURN CODE
.MEND    MEND
