         MACRO
&NAME    SETREGS &DUMMY            EQUATE 16 GP REGISTERS
         LCLA  &I                  DEFINE LOCAL
         AIF   (D'R0).MEND         SKIP EQUATES IF R0 ALREADY DEFINED
         PUSH  PRINT
         PRINT NOGEN
&I       SETA  0                   INITIALIZE
.LOOP    ANOP                      LOOP BACK TO HERE
R&I      EQU   &I                  DEFINE A REGISTER
&I       SETA  &I+1                BUMP INDEX
         AIF   (&I LT 16).LOOP     BACK IF MORE TO DO
         POP   PRINT
.MEND    MEND
