         MACRO
&NAME    TSWITCH &SWITCH
         LCLA  &I,&J
         LCLC  &X
&J       SETA  L'&SWITCH
&X       SETC  '&J'
&I       SETA  2
.LOOP    AIF   ('&SYSLIST(&I)' EQ '').SKIP
&J       SETA  L'&SYSLIST(&I)
&X       SETC  '&X+&J'
&I       SETA  &I+1
         AGO   .LOOP
.SKIP    ANOP
&NAME    IF    (TM,&SWITCH,&X,O),THENDO
         MEND
