***********************************************************************
***********************************************************************
***                                                                 ***
***  JOB STATEMENT VERIFICATION - TSO SUBMIT EXIT IKJEFF10          ***
***                                                                 ***
***  DOCUMENTATION ON THE FOLLOWING SUBMIT EXIT CAN BE FOUND IN     ***
***  IBM PUBLICATION "RACF RELEASE 1.7 USAGE GUIDE", INTERNATIONAL  ***
***  TECHNICAL SUPPORT CENTERS, GG24-3069-0, P.63-70, AND APPENDIX  ***
***  C, "SAMPLE CODING", PAGES 110-138.                             ***
***                                                                 ***
***  ==> THIS CODE HAS NOT BEEN SUBMITTED TO ANY FORMAL IBM TEST    ***
***      AND IS DISTRIBUTED ON AN "AS IS" BASIS WITHOUT ANY         ***
***      WARRANTY EITHER EXPRESS OR IMPLIED. THE IMPLEMENTATION     ***
***      OF ANY OF THE TECHNIQUES DESCRIBED OR USED HEREIN IS A     ***
***      CUSTOMER RESPONSIBILITY AND DEPENDS ON THE CUSTOMER'S      ***
***      OPERATIONAL ENVIRONMENT. WHILE EACH ITEM MAY HAVE BEEN     ***
***      REVIEWED FOR ACCURACY IN A SPECIFIC SITUATION AND MAY      ***
***      RUN IN A SPECIFIC ENVIRONMENT, THERE IS NO GUARANTEE       ***
***      THAT THE SAME OR SIMILAR RESULTS WILL BE OBTAINED ELSE-    ***
***      WHERE. CUSTOMERS ATTEMPTING TO ADAPT THESE TECHNIQUES TO   ***
***      THEIR OWN ENVIRONMENTS DO SO AT THEIR OWN RISK.            ***
***                                                                 ***
***********************************************************************
***********************************************************************
         EJECT
         MACRO
&NAME    REGI  &BIT=YES,&FLOAT=NO
         GBLA  &IEZBITS
*
***********************************************************************
*                                                                     *
*         REGISTER AND BIT EQUATES                                    *
*                                                                     *
*         REGI  BIT=NO     REGISTER EQUATES ONLY                      *
*         REGI  FLOAT=YES  FLOATING POINT REGISTERS TOO               *
*                                                                     *
***********************************************************************
*
R0       EQU   0
R1       EQU   1
R2       EQU   2
R3       EQU   3
R4       EQU   4
R5       EQU   5
R6       EQU   6
R7       EQU   7
R8       EQU   8
R9       EQU   9
R10      EQU   10
R11      EQU   11
R12      EQU   12
R13      EQU   13
R14      EQU   14
R15      EQU   15
         AIF   ('&FLOAT' NE 'YES').BITS
*
F0       EQU   0                   FLOATING POINT REGISTER 0
F2       EQU   2                   FLOATING POINT REGISTER 2
F4       EQU   4                   FLOATING POINT REGISTER 4
F6       EQU   6                   FLOATING POINT REGISTER 6
.BITS    ANOP
         AIF   ('&BIT' NE 'YES').END
         AIF   (&IEZBITS EQ 0).SETSW
         MEXIT
.SETSW   ANOP
&IEZBITS SETA  1
*
BIT0     EQU   X'80'
BIT1     EQU   X'40'
BIT2     EQU   X'20'
BIT3     EQU   X'10'
BIT4     EQU   X'08'
BIT5     EQU   X'04'
BIT6     EQU   X'02'
BIT7     EQU   X'01'
.END     ANOP
         MEND
IKJEFF10 TITLE 'TSO SUBMIT COMMAND INSTALLATION EXIT'
         PRINT OFF
***********************************************************************
***********************************************************************
***                                                                 ***
***      CONDITIONAL ASSEMBLY CODE TO RESOLVE THE PARAMETERS IN     ***
***      THE 'SYSPARM' STRING SPECIFIED IN THE // EXEC JCL STATE-   ***
***      MENT. POSSIBLE PARAMETERS ARE:                             ***
***                                                                 ***
***      USRI=YES|NO,PSWP=YES|NO,NOTF=YES|NO                        ***
***                                                                 ***
***      DEFAULT:  USRI=NO,PSWP=NO,NOTF=YES                         ***
***                                                                 ***
***      MEANING:                                                   ***
***                                                                 ***
***      USRI=YES: INSERT SUBMITTER'S USERID AND PASSWORD (FROM     ***
***                THE TSB) IF THE 'USER=' PARAMETER IS OMITTED     ***
***                FROM THE JOBCARD. SHOULD BE SPECIFIED ONLY       ***
***                IF JES SUPPORT FOR USERID AND PASSWORD           ***
***                PROPAGATION IS NOT INSTALLED.                    ***
***      USRI=NO : SUBMIT JOB WITHOUT USERID IF 'USER=' PARAMETER   ***
***                OMITTED FROM JOBCARD. SHOULD BE SPECIFIED ON     ***
***                SYSTEMS WITH JES2/3 VERSION 1.3.4 AND ABOVE      ***
***                WITH USERID AND PASSWORD PROPAGATION             ***
***                SUPPORT INSTALLED.                               ***
***                DEFAULT: USRI=NO                                 ***
***                                                                 ***
***      PSWP=YES: ALWAYS PROMPT FOR A PASSWORD IF SUBMITTER'S      ***
***                USERID AND THE 'USER=' PARAMETER ARE UNEQUAL,    ***
***                EVEN IF A 'PASSWORD=' PARAMETER HAS BEEN SPE-    ***
***                CIFIED IN THE JOBCARD. THIS IS FOR INSTALLATIONS ***
***                WHO WANT TO DISCOURAGE THE USE OF PASSWORDS      ***
***                IN THEIR USERS' JCL LIBRARIES.                   ***
***      PSWP=NO : PROMPT FOR A PASSWORD ONLY IF A 'PASSWORD='      ***
***                PARAMETER IS NOT IN THE JOBCARD.                 ***
***                DEFAULT: PSWP=NO                                 ***
***                                                                 ***
***      NOTF=YES: INSERT 'NOTIFY=' PARAMETER IN JOBCARD IF OMITTED ***
***      NOTF=NO : DON'T INSERT 'NOTIFY=' PARAMETER.                ***
***                DEFAULT: NOTF=YES                                ***
***                                                                 ***
***********************************************************************
***********************************************************************
         LCLA  &L,&I,&J,&N,&COUNT,&LAST
         LCLC  &USRIP,&PSWPP,&NOTFP,&MIST
         LCLB  &HUSRI,&HPSWP,&HNOTF
         LCLB  &USRI,&PSWP,&NOTF
&HUSRI   SETB  0
&HPSWP   SETB  0
&HNOTF   SETB  0
&USRI    SETB  0
&PSWP    SETB  0
&NOTF    SETB  1
&COUNT   SETA  1
&L       SETA  K'&SYSPARM          LENGTH OF SYSPARM STRING
&LAST    SETA  &L                  POS. OF LAST CHAR. IN SYSPARM
&I       SETA  1                   START OF PARAMETER TO BE CHECKED
         AIF   (&L EQ 0).NOPARM    SYSPARM NOT SPECIFIED IN EXEC STMT.
.CHKPSWP ANOP
         AIF   (&HPSWP).CHKUSRI    'PSWP=' ALREADY FOUND, BYPASS
         AIF   (&L LT 7).CHKUSRI   MUST BE AT LEAST 'PSWI=NO'
         AIF   ('&SYSPARM'(&I,5) NE 'PSWP=').CHKUSRI
&I       SETA  &I+5                INDEX TO PSWP PARAMETER VALUE
&L       SETA  &L-5                REMAINING PARAMETER LENGTH
&J       SETA  &I                  CHARACTER INDEX
.LP1     AIF   (&L EQ 0).COM1      END OF SYSPARM STRING
         AIF   ('&SYSPARM'(&J,1) EQ ',').COM1  DELIM. FOUND
&J       SETA  &J+1                BUMP CHARACTER INDEX
         AIF   (&J GT &LAST).COM1  AT END OF STRING, BRANCH
         AIF   (&J-&I LE 3).LP1    LOOP IF WITHIN LENGTH LIMIT
.PSWPERR MNOTE 8,'INVALID SPECIFICATION FOR ''PSWP'' PARAMETER'
         AGO   .END
.COM1    ANOP
&N       SETA  &J-&I               LENGTH OF PARAMETER
&PSWPP   SETC  '&SYSPARM'(&I,&N)   VALUE OF 'PSWP='
         AIF   ('&PSWPP' EQ 'NO').PSWPOK 'NO' IS DEFAULT
         AIF   ('&PSWPP' NE 'YES').PSWPERR ANYTHING BUT 'YES'
&PSWP    SETB  1                   SET PSWP TO YES
.PSWPOK  ANOP
&HPSWP   SETB  1                   INDICATE PARAMETER PRESENT
         AIF   (&J GT &LAST).NOPARM END OF STRING, BRANCH
&N       SETA  &N+1                ADD ONE FOR THE COMMA
&L       SETA  &L-&N               REMAINING PARAMETER LENGTH
&I       SETA  &I+&N               BUMP OVER PARAM. AND COMMA
         AIF   (&L EQ 0).NOPARM    SYSPARM NOT SPECIFIED IN EXEC STMT.
.CHKUSRI ANOP
         AIF   (&HUSRI).CHKNOTF    'USRI=' ALREADY FOUND, BYPASS
         AIF   (&L LT 7).CHKNOTF   MUST BE AT LEAST 'USRI=NO'
         AIF   ('&SYSPARM'(&I,5) NE 'USRI=').CHKNOTF
&I       SETA  &I+5                INDEX TO USRI PARAMETER VALUE
&L       SETA  &L-5                REMAINING PARAMETER LENGTH
&J       SETA  &I                  CHARACTER INDEX
.LP2     AIF   (&L EQ 0).COM2      END OF SYSPARM STRING
         AIF   ('&SYSPARM'(&J,1) EQ ',').COM2  DELIM. FOUND
&J       SETA  &J+1                BUMP CHARACTER INDEX
         AIF   (&J GT &LAST).COM2  AT END OF STRING, BRANCH
         AIF   (&J-&I LE 3).LP2    LOOP IF WITHIN LENGTH LIMIT
.USRIERR MNOTE 8,'INVALID SPECIFICATION FOR ''USRI'' PARAMETER'
         AGO   .END
.COM2    ANOP
&N       SETA  &J-&I               LENGTH OF PARAMETER
&USRIP   SETC  '&SYSPARM'(&I,&N)   VALUE OF 'USRI='
         AIF   ('&USRIP' EQ 'NO').USRIOK 'NO' IS DEFAULT
         AIF   ('&USRIP' NE 'YES').USRIERR ANYTHING BUT 'YES'
&USRI    SETB  1                   SET USRI TO YES
.USRIOK  ANOP
&HUSRI   SETB  1                   INDICATE PARAMETER PRESENT
         AIF   (&J GT &LAST).NOPARM END OF STRING, BRANCH
&N       SETA  &N+1                ADD ONE FOR THE COMMA
&L       SETA  &L-&N               REMAINING PARAMETER LENGTH
&I       SETA  &I+&N               BUMP OVER PARAM. AND COMMA
         AIF   (&L EQ 0).NOPARM    SYSPARM NOT SPECIFIED
.CHKNOTF ANOP
         AIF   (&HNOTF).CHKNXT     'NOTF=' ALREADY FOUND, BYPASS
         AIF   (&L LT 7).CHKNXT    MUST BE AT LEAST 'NOTF=NO'
         AIF   ('&SYSPARM'(&I,5) NE 'NOTF=').CHKNXT
&I       SETA  &I+5                INDEX TO NOTF PARAMETER VALUE
&L       SETA  &L-5                REMAINING PARAMETER LENGTH
&J       SETA  &I                  CHARACTER INDEX
.LP3     AIF   (&L EQ 0).COM3      END OF SYSPARM STRING
         AIF   ('&SYSPARM'(&J,1) EQ ',').COM3  DELIMITER FOUND, BRANCH
&J       SETA  &J+1                BUMP CHARACTER INDEX
         AIF   (&J GT &LAST).COM3  AT END OF STRING, BRANCH
         AIF   (&J-&I LE 3).LP3    LOOP IF WITHIN LENGTH LIMIT
.NOTFERR MNOTE 8,'INVALID SPECIFICATION FOR ''NOTF'' PARAMETER'
         AGO   .END
.COM3    ANOP
&N       SETA  &J-&I               LENGTH OF PARAMETER
&NOTFP   SETC  '&SYSPARM'(&I,&N)   VALUE OF 'NOTF='
         AIF   ('&NOTFP' EQ 'YES').NOTFOK 'YES' IS DEFAULT
         AIF   ('&NOTFP' NE 'NO').NOTFERR ANYTHING BUT 'NO'
&NOTF    SETB  0                   SET NOTF TO NO
.NOTFOK  ANOP
&HNOTF   SETB  1                   INDICATE PARAMETER PRESENT
         AIF   (&J GT &LAST).NOPARM END OF STRING, BRANCH
&N       SETA  &N+1                ADD ONE FOR THE COMMA
&L       SETA  &L-&N               REMAINING PARAMETER LENGTH
&I       SETA  &I+&N               BUMP OVER PARAM. AND COMMA
.CHKNXT  ANOP
         AIF   (&COUNT GT 3).ERR   MORE THAN 3 TIMES THROUGH ?
&COUNT   SETA  &COUNT+1            ADD 1 TO LOOP COUNT
         AGO   .CHKPSWP            ONCE MORE THROUGH THE LOOP
.ERR     ANOP
&N       SETA  &LAST-&I+1          REMAINDER OF SYSPARM STRING
&MIST    SETC  '&SYSPARM'(&I,&N)
         MNOTE 12,'INVALID ''SYSPARM'' SPECIFICATION ''&MIST'''
         AGO   .END
.NOPARM  ANOP
         EJECT
         PRINT ON
IKJEFF10 CSECT ,
IKJEFF10 AMODE 24
IKJEFF10 RMODE 24
         SPACE 5
***********************************************************************
***********************************************************************
***                                                                 ***
***      INSTALLATION EXIT FOR THE 'SUBMIT' COMMAND PROCESSOR.      ***
***                                                                 ***
***      THIS INSTALLATION-WRITTEN EXIT ROUTINE CHECKS THE JOB      ***
***      CARDS OF JOBS BEING SUBMITTED VIA THE 'SUBMIT' COMMAND     ***
***      PROCESSOR OR THE EDIT SUBCOMMAND PROCESSOR.                ***
***                                                                 ***
***      THE ROUTINE CHECKS THE PARAMETERS 'USER=' AND              ***
***      'PASSWORD=' IN THE JOBCARD.                                ***
***      FOLLOWING ACTIONS ARE TAKEN:                               ***
***                                                                 ***
***      1. IF THE PARAMETER 'USER=' IS PRESENT, THE PARAMETER      ***
***         'PASSWORD=' IS OMITTED, HOWEVER, THE TERMINAL USER      ***
***         IS PROMPTED FOR THE PASSWORD, UNLESS THE USERID IS      ***
***         THAT OF THE USER'S SESSION.                             ***
***                                                                 ***
***         THE PARAMETER 'PASSWORD=' IS GENERATED AND INSERTED     ***
***         IN THE JOBCARD.                                         ***
***                                                                 ***
***         IF A 'NEW PASSWORD' IS ALSO GIVEN, IT IS INSERTED       ***
***         IN THE 'PASSWORD='-PARAMETER. IN THAT CASE, THE         ***
***         PASSWORD IS NOT REMEMBERED FOR FOLLOWING JOBS.          ***
***                                                                 ***
***      2. IF THE PARAMETER 'USER=' IS OMITTED, TWO ALTERNATIVE    ***
***         ACTIONS CAN BE TAKEN DEPENDING ON THE SETTING OF        ***
***         'SYSPARM' WHEN THE MODULE WAS ASSEMBLED:                ***
***         A) THE TSO USER'S USERID IS INSERTED (USRI=YES)         ***
***            THE PASSWORD FROM THE TSB IS ALSO INSERTED IN        ***
***            THE 'PASSWORD=' PARAMETER.                           ***
***         B) NO 'USER=' AND 'PASSWORD=' PARAMETERS ARE            ***
***            CREATED (USRI=NO)                                    ***
***                                                                 ***
***      3. DEPENDING ON THE SETTING OF THE PARAMETER 'NOTF='       ***
***         IN THE 'SYSPARM' STRING AT ASSEMBLY TIME, THE           ***
***         'NOTIFY=' PARAMETER IS HANDLED:                         ***
***                                                                 ***
***         A) A 'NOTIFY=' PARAMETER FOR THE SUBMITTING USER'S      ***
***            USERID IS INSERTED IN THE JOBCARD (NOTF=YES)         ***
***         B) NO 'NOTIFY=' PARAMETER IS CREATED, BUT AN EXISTING   ***
***            ONE IS LEFT UNTOUCHED (NOTF=NO)                      ***
***                                                                 ***
***********************************************************************
***********************************************************************
         EJECT
         SPACE 5
***********************************************************************
***********************************************************************
***                                                                 ***
***      4. THE WAY THE PARAMETER 'PASSWORD=' IN JOBCARDS IS        ***
***         TREATED IS ALSO DEPENDENT ON THE  SETTING OF 'SYSPARM': ***
***                                                                 ***
***         A) IF 'PSWP=YES', THE PASSWORD IN 'PASSWORD=' IS        ***
***            CLEARED AND THE USER IS PROMPTED FOR THE PASSWORD.   ***
***         B) IF 'PSWP=NO', A 'PASSWORD=' PARAMETER IN A JOBCARD   ***
***            IS ACCEPTED AND THE USER IS PROMPTED ONLY IF THIS    ***
***            PARAMETER IS OMITTED AND THE USERID SPECIFIED IN     ***
***            THE PARAMETER 'USER=' IS NOT EQUAL TO THE            ***
***            SUBMITTER'S USERID.                                  ***
***         C) IF 'PSWI=YES', A 'PASSWORD=' PARAMETER WITH THE      ***
***            MITTER'S PASSWORD IS INSERTED, IF NOT SPECIFIED      ***
***            BY THE USER.                                         ***
***                                                                 ***
***      OTHER PARAMETERS OF THE JOBCARD AND/OR OTHER JCL           ***
***      STATEMENTS CAN BE HANDLED BY INSERTING APPROPRIATE CODE    ***
***      AT LOCATIONS IN THE CODE THAT ARE IDENTIFIED BY COMMENTS.  ***
***                                                                 ***
***      IF CODE IS ADDED TO THIS EXIT ROUTINE, THE FOLLOWING       ***
***      SHOULD BE OBSERVED:                                        ***
***                                                                 ***
***      WHEN THE EXIT IS REENTERED FROM THE SUBMIT COMMAND,        ***
***      THE CODE AT THE BEGINNING OF THE EXIT ROUTINE WILL         ***
***      RESTORE THE CONTENTS OF REGISTERS 9 (EXIT PARAMETER        ***
***      LIST) AND 10 (WORK AREA) AND WILL INITIALIZE REG. 7 TO     ***
***      THE START OF THE PARAMETER BUFFER. THE CONTENTS OF ALL     ***
***      OTHER REGISTERS, IF NEEDED, HAS TO BE SAVED IN THE         ***
***      EXIT'S WORK AREA (SUBWORK).                                ***
***                                                                 ***
***********************************************************************
***********************************************************************
         EJECT
         SPACE 5
***********************************************************************
***********************************************************************
***                                                                 ***
***      REGISTERS ON ENTRY:                                        ***
***      R1    ADDR. OF POINTER TO PARAMETER LIST                   ***
***            (MAPPED BY MACRO INSTR. 'IKJEFFIE')                  ***
***      R7    ADDR. OF SUBMIT'S INTERNAL CONTROL TABLE IKJEFFCT    ***
***                                                                 ***
***      EXIT:                                                      ***
***      R15   0 - PROCESS CURRENT STATEMENT AND READ THE NEXT      ***
***            4 - REINVOKE EXIT ROUTINE FOR INSERTION OF A         ***
***                NEW STATEMENT.                                   ***
***            8 - DISPLAY MESSAGE GENERATED BY EXIT ROUTINE        ***
***                (MSG. ID IKJ56283I) AND REINVOKE EXIT            ***
***           12 - DISPLAY PROMPTING MESSAGE GENERATED BY EXIT      ***
***                ROUTINE (MSG. ID IKJ56280A), OBTAIN RESPONSE,    ***
***                AND REINVOKE EXIT ROUTINE.                       ***
***           16 - TERMINATE THE SUBMIT COMMAND                     ***
***                                                                 ***
***      REGISTER USAGE:                                            ***
***      R13   SAVE AREA                                            ***
***      R12   PROGRAM BASE                                         ***
***      R10   ADDR. OF WORK AREA  (SUBWORK)                        ***
***      R9    ADDR. OF EXIT PARAMETER LIST (IEEXITL)               ***
***      R8    ADDR. OF CONTROL SWITCHES (IESUBCTP)                 ***
***      R7    ADDR. OF PARAMETER BUFFER (PARMENT)                  ***
***                                                                 ***
***********************************************************************
***********************************************************************
         EJECT
         CVT   DSECT=YES
         EJECT
         IHAASCB
         EJECT
         IKJEFFIE IETYPE=SUBMIT
         EJECT
         IEZJSCB
         EJECT
         IKJPPL
         EJECT
         IKJTCB
         EJECT
         IKJTSB
         EJECT
*
***********************************************************************
*                                                                     *
*        PARAMETER LIST ENTRY                                         *
*                                                                     *
***********************************************************************
*
PARMENT  DSECT
PARMLNG  DS    H                   LENGTH OF PARAMETER
PARMTYP  DS    H                   TYPE OF PARAMETER
PARMTPAR EQU   X'80'               PARAMETER HAS PARENTHESES
PARMTSUB EQU   X'40'               PARAMETER HAS SUBPARAMETERS
PARMTXT  DS    CL144               PARAMETER
PARMNXT  DS    0H
PARMELNG EQU   *-PARMLNG           LENGTH OF PARAMETER ENTRY
         EJECT
*
***********************************************************************
*                                                                     *
*        WORK AREA FOR THE SUBMIT INSTALLATION EXIT IKJEFF10          *
*                                                                     *
***********************************************************************
*
SUBWORK  DSECT
SUBACR   DC    CL8'SUBWORK'        ACRONYM
SUBSAV   DS    18F                 SAVE AREA
SUBCLSAV DS    4F                  SAVE AREA FOR CLRPARM SUBROUTINE
SUBJOBN  DS    CL8                 JOB NAME
SUBUSID  DS    CL8                 USERID
SUBPSWD  DS    CL8                 PASSWORD
SUBNPSWD DS    CL8                 NEW PASSWORD
SUBPBUF  DS    A                   ADDR. OF PARAMETER BUFFER
SUBPARM  DS    A                   ADDR. OF NEXT FREE PARAM. ENTRY
SUBCURP  DS    A                   ADDR. OF CURRENT PARAM. ENTRY
SUBPROC  DS    A                   ADDR. OF PROCESSING ROUT. (RC=8/12)
SUBPPL   DS    A                   ADDR. OF SUBMIT'S PARSE PARAM. LIST
SUBANS   DS    A                   ADDR. OF ANSWER PLACE FROM PARSE
SUBINSRT DS    A                   INSERTION POINT IN PARAMETER TEXT
SUBPARCT DS    F                   COUNT OF OPEN LEFT PARENTHESES
*
SUBCLNG  DS    H                   LENGTH OF JCL (FOR MESSAGE)
SUBCARD  DS    CL80                JCL STATEMENT
SUBOPST  DS    H                   START OF OPERAND IN FIRST CARD
SUBMSGL  DS    H                   LENGTH OF MESSAGE
SUBMSG   DS    CL80                MESSAGE AREA FOR CHANGEABLE MSGS.
*
SUBUSLN  DS    H                   LENGTH OF USERID - 1
SUBPWLN  DS    H                   LENGTH OF PASSWORD - 1
SUBNPWLN DS    H                   LENGTH OF NEW PASSWORD - 1
SUBWKLN  DS    H                   LENGTH OF SAVED PARAMETER TEXT
SUBWKSP  DS    CL144               SAVED PARAMETER TEXT
*
SUBFLG1  DS    X                   FLAG BYTE
SUBJBCMP EQU   X'80'               JOB CARD PROCESSED
SUBCHNG  EQU   X'40'               STATEMENT IS CHANGED
SUB1SHOT EQU   X'20'               CONTROL STMT. IS ONLY 1 CARD
SUBLAST  EQU   X'10'               LAST CARD OF STATEMENT
*
SUBCDFLG DS    X                   CARD PROCESSING FLAG BYTE
SUBOPCNT EQU   X'80'               OPERAND CONTINUED ON NEXT CARD
SUBCONT  EQU   X'20'               STATEMENT IS TO BE CONTINUED
         DS    0D
SUBLNG   EQU   *-SUBWORK           LENGTH OF WORK AREA
         EJECT
         REGI  BIT=YES
         EJECT
IKJEFF10 CSECT
         SAVE  (14,12),,IKJEFF10.V03L00.&SYSDATE
         LR    R12,R15
         USING IKJEFF10,R12        PROGRAM BASE
         USING SUBWORK,R10         BASE FOR WORK AREA
         L     R9,0(R1)            GET ADDR. OF PARAMETER LIST
         USING IEEXITL,R9          BASE FOR EXIT PARAMETER LIST
*
***********************************************************************
*                                                                     *
*        GET STORAGE FOR WORK AREA AND PARAMETER BUFFER               *
*        IF FIRST ENTRY TO SUBMIT EXIT ROUTINE                        *
*                                                                     *
***********************************************************************
*
         ICM   R10,15,IEEXITWD     GET PTR. TO EXIT'S WORKAREA
         BNZ   GOTWORK             -NOT ZERO, AREA IS PRESENT
         GETMAIN RU,                                                   *
               LV=SUBLNG,SP=229    GET STORAGE FOR WORKAREA
         LR    R10,R1              ADDR. OF WORK AREA
         ST    R10,IEEXITWD        SAVE ADDR. IN PARAMETER LIST
         LR    R0,R1               ADDR. OF AREA
         LA    R1,SUBLNG           LENGTH OF AREA
         LM    R14,R15,ZEROES
         MVCL  R0,R14              CLEAR WORKAREA
         MVC   SUBACR,=CL8'SUBWORK'  ACRONYM TO WORKAREA
*
***********************************************************************
*                                                                     *
*        SAVE ADDR. OF SUBMIT'S PARSE PARAMETER LIST IN THE           *
*        WORKAREA. THE PTR. TO THE PPL IS IN IKJEFFCT,                *
*        SUBMIT'S INTERNAL CONTROL TABLE. IKJEFF10'S CALLER           *
*        (IKJEFF09) USES REG. 7 AS BASE FOR IKJEFFCT.                 *
*                                                                     *
*        NOTE: THIS CODE HAS A DEPENDENCY ON THE FORMAT OF THE        *
*              INTERNAL CONTROL TABLE IKJEFFCT. IN CASE OF PROBLEMS,  *
*              CHECK MICROFICHE OF MODULE IKJEFF09.                   *
*                                                                     *
***********************************************************************
*
         L     R1,40(,R7)          GET ADDR. OF PPL
         ST    R1,SUBPPL           STORE IN WORKAREA
*
GETBUFR  DS    0H
         GETMAIN RU,                                                   *
               LV=4096,SP=229      GET A PAGE
         LR    R7,R1               ADDR. OF PARAMETER BUFFER
         USING PARMENT,R7          BASE FOR PARAMETER ENTRY
         MVC   0(8,R7),=CL8'PARMBUF' MOVE ACRONYM TO BUFFER
         LA    R7,8(,R7)           BUMP OVER ACRONYM
         ST    R7,SUBPBUF          STORE ADDR. IN WORK AREA
         ST    R7,SUBPARM          ADDR. OF FREE PARAM. ENTRY
GOTWORK  DS    0H
         ST    R13,SUBSAV+4        BACKWARD PTR.
         LR    R15,R13             SAVE OLD SAVE AREA ADDR.
         LA    R13,SUBSAV
         ST    R13,8(R15)          FORWARD PTR.
         L     R7,SUBPBUF          ADDR. OF PARAMETER BUFFER
*
***********************************************************************
*                                                                     *
*        DETERMINE CONDITION UNDER WHICH EXIT IS CALLED               *
*                                                                     *
***********************************************************************
*
         CLC   IEMSGP,ZEROES       MESSAGE ISSUED OR PROMPT ?
         BNZ   RET8OR12            -YES, BRANCH
         L     R8,IESUBCTP         ADDR. OF CONTROL SWITCHES
         USING IESUBCTD,R8         BASE FOR JCL CONTROL INFORMATION
         TM    IESTMTYP,IESJOB     JOB STATEMENT ?
         BO    JOBSTMT             -YES, BRANCH
*
* IF THE EXIT SHOULD BE CALLED FOR OTHER JCL THAN JOB STATEMENTS,
* THE APPROPRIATE FLAGS MUST BE TESTED AND ROUTINES BRANCHED TO.
* BUT DON'T FORGET TO SET THE FLAGS IN 'IETAKEEX' ON FIRST ENTRY
*
         SR    R15,R15             RETURN CODE IS ZERO
         EJECT
*
***********************************************************************
*                                                                     *
*        RETURN TO CALLER, RETURN CODE IN REGISTER 15                 *
*                                                                     *
***********************************************************************
*
GOBACK   DS    0H
         L     R13,4(R13)          RELOAD SAVE AREA ADDR.
         RETURN (14,12),RC=(15)    BACK TO CALLER
         EJECT
*
***********************************************************************
*                                                                     *
*        PROCESSING ROUTINE FOR JOB STATEMENTS                        *
*                                                                     *
***********************************************************************
*
JOBSTMT  DS    0H
         ICM   R1,15,IECARDP       GET ADDR. OF JCL STMT.
         BZ    CONTINUE            -ZERO, GENERATE CONTINUATION
         TM    IESTMTYP,IESCONTN   IS THIS FIRST STATEMENT ?
         BO    JOBNFST             -NO, BRANCH
         MVI   SUBCDFLG,0          CLEAR CARD PROCESSING FLAGS
         MVI   SUBFLG1,0           CLEAR FLAGS
         ST    R7,SUBPARM          CLEAR PTR. TO FREE PARM. ENTRY
         BAL   R14,CLRPARM         CLEAR PARAMETER BUFFER
         SR    R0,R0
         IC    R0,IEOPRAND         GET START OF OPERAND FIELD
         BCTR  R0,0                MINUS 1 IS OFFSET
         STH   R0,SUBOPST          SAVE START OF OPERAND FIELD
JOBNFST  DS    0H
         CLI   2(R1),C'*'          IS THIS A COMMENT STATEMENT ?
         BE    JOBCONT             -YES, SKIP IT
         SR    R0,R0
         IC    R0,IEOPRAND         GET START OF OPERAND FIELD
         BCTR  R0,0                MINUS 1 IS OFFSET
         AR    R0,R1               PTR. TO START OF OPERAND
         BAL   R14,PARMSEP         SEPARATE JOB CARD PARAMETERS
         LTR   R15,R15             NORMAL RETURN ?
         BNZ   JCLERR              -NO, JOB CONTROL ERROR
         TM    IESTMTYP,IESCONTN   IS THIS FIRST STATEMENT ?
         BO    JOBCONT             -NO, BRANCH
         L     R1,IECARDP          ADDR. OF JOB STATEMENT
         MVC   SUBCARD,0(R1)       SAVE FIRST JOB STATEMENT
*
* MOVE JOBNAME TO WORK AREA
*
         MVC   SUBJOBN,BLANKS      BLANK OUT JOBNAME FIELD
         LA    R1,SUBCARD+2        FIRST JOBNAME CHARACTER
         LA    R2,1                VALUE OF INCREMENT
         LA    R3,8(,R1)           LAST JOBNAME CHARACTER
JOBBLNK  DS    0H
         CLI   1(R1),C' '          END OF JOBNAME ?
         BE    JOBNAM              -YES, BRANCH
         BXLE  R1,R2,JOBBLNK       TEST NEXT CHARACTER
         B     JCLERR              JOBNAME TOO LONG
JOBNAM   DS    0H
         LA    R2,SUBCARD+2        START OF JOBNAME
         SR    R1,R2               LENGTH OF JOBNAME - 1
         EX    R1,JOBNMOVE         MOVE JOBNAME TO WORK AREA
         OC    SUBJOBN,BLANKS      MAKE JOBNAME UPPER CASE