         MACRO
&NAME    CONVERT  &REG
***            CONVERT HEX CHARACTERS TO PRINTABLE FORMAT   PMCF.
***            CONVERT (TO,FROM,LENGTH)
&NAME    DS    0H                      ALIGN ON HALF-WORD
         LA    14,*+56                 LOAD RETURN ADDRESS
         MVO   0(2,&REG(1)),0(1,&REG(2)) ADJUST OFFSET
         MVN   1(1,&REG(1)),0(&REG(2)) SET NUMERIC CHAR.
         NI    1(&REG(1)),X'0F'        FLIP UNWANTED BITS OFF
         TR    0(2,&REG(1)),*+20       TRANSLATE THE BYTE
         LA    &REG(1),2(0,&REG(1))    BUMP UP REGISTER
         LA    &REG(2),1(0,&REG(2))    BUMP UP REGISTER
         BCT   &REG(3),*-30            CONVERT AGAIN IF REG. NZERO
         BCR   15,14                   BRANCH TO EXECUTABLE INST.
         DC    C'0123456789ABCDEF'     CHARACTER STRING FOR TR INST.
         MEND
MODREP   CSECT             "NO NEED TO IPL"
         SPACE 3
*********************************************************************
*  MODREP-LPA/SVC REAL TIME LOADER AND REPLACEMENT AND PERFORMANCE  *
*         TOOL                                                      *
*                                                                   *
*  MODULE CONCEPTS:   "REAL TIME" MLPA SIMULATION, SVC REPLACEMENT  *
*                     AND MODULE "FIXING" (FOR PERFORMANCE AND      *
*                     EASE OF IN-CORE ZAP)                          *
*                     THIS MODULE IS PAGEABLE.                      *
*                     LOADED MODULES AND SVCS ARE PLACED IN FIXED   *
*                     CSA MEMORY.                                   *
*                     WHY IN FIXED MEMORY?                          *
*                     1) TYPE 1 AND 2 SVC'S MUST BE RESIDENT IN THE *
*                        NUCLEUS (OR AT LEAST APPEAR TO BE SO)      *
*                     2) AS THIS IS A "TEST TOOL" THE ASSUMPTION    *
*                        IS THAT IN-CORE ZAPS MAY BECOME NECESSARY  *
*                        AND YOU ARE ASSURED THE MODULE WILL BE IN  *
*                        CORE AT ALL TIMES (NOT PAGED OUT)          *
*                     3) FOR PERFORMANCE TESTING, A DUPLICATE COPY  *
*                        OF A CURRENTLY PAGEABLE MODULE MAY BE      *
*                        RE-LOADED AND YOU WILL BE ABLE TO EXAMINE  *
*                        THE PERFORMANCE GAINS THAT WOULD RESULT    *
*                        IN THE PERMANENT FIXING OF THE MODULE VIA  *
*                        IEAFIXXX                                   *
*                                                                   *
*  MEMORY UTILIZATION:                                              *
*  FOR MODULES:       48 BYTES OF SQA (SP 245)-FOR CDE/XTLST        *
*  FOR SVCS:          0 BYTES-SVC TABLE UPDATED IN PLACE            *
*  FOR MODULES/SVCS:  XX BYTES OF CSA (SP 228)-FETCH WILL LOAD AND  *
*                     RELOCATE YOUR MODULE BASED UPON MODULE SIZE   *
*                                                                   *
*  LOCKS OBTAINED:    SALLOC: GETMAIN,FREEMAIN COMMON AREAS         *
*                     DISP:   LOCK ON CDE CHAIN                     *
*                     THE USE OF THE LOCKING MECHANISM WILL NOT     *
*                     AFFECT THE OPERATION OF THIS MODULE IN A U.P. *
*                     ENVIRONMENT (EXCEPT FOR LOCKING OVERHEAD)     *
*                                                                   *
*  LINK ATTR:         AUTH,NORENT,NOREUS                            *
*                     MUST BE IN APF AUTHORIZED LIBRARY             *
*                                                                   *
*  SAMPLE JCL:                                                      *
*                     //MODREP    PROC  LIB='SYS1.MVSLMOD'          *
*                     //MODREP    EXEC  PGM=MODREP,TIME=1440        *
*                     //STEPLIB   DD    DSN=SYS1.MVSLMOD,DISP=SHR   *
*                     //MODREP    DD    DISP=SHR,DSN=&LIB.          *
*                     //SYSUDUMP  DD    SYSOUT=A                    *
*                                                                   *
*                     NOTES:                                        *
*                            TIME PARM-IF THIS PROGRAM IS CANCELLED *
*                            FOR WAIT TIME, MODS BECOME RESIDENT    *
*                            UNTIL THE NEXT IPL, UNLESS OVERRIDDEN  *
*                            BY ANOTHER STARTUP OF THIS PROGRAM.    *
*                            DD MODREP-IS WHERE THE MODULES THAT    *
*                            YOU WILL BE LOADING ON A REAL TIME     *
*                            BASIS EXIST.                           *
*                            DD STEPLIB-LIBRARY MUST BE NAMED IN    *
*                            IEAAPFXX MEMBER OF PARMLIB, ELSE USE   *
*                            A LINKLIST DATASET WITH NO STEPLIB     *
*                            SYSUDUMP IS NOT NECESSARY (AS THIS     *
*                            CODE IS TOTALLY INFALLIBLE)...SORT OF  *
*                            IT IS POSSIBLE TO HAVE AS MANY COPIES  *
*                            OF THIS PROGRAM RUNNING AT ONCE AS IS  *
*                            NECESSARY (IE. 1 PER PDS LIBRARY BEING *
*                            ACCESSED).                             *
*                                                                   *
*  WTOR:               OUTSTANDING WTOR FOR LIFE OF TASK            *
*                      "MODREP READY"                               *
*                                                                   *
*  REPONSES:           "DISPLAY" - DISPLAY ALL MODULES/SVCS         *
*                                  CURRENTLY LOADED AND THEIR EPA'S *
*                      "DI"      - SHORT FORM OF ABOVE              *
*                      "DELETE"  - REMOVE (DELETE) ALL MODULES      *
*                                  LOADED, THEN GO AWAY             *
*                      "DE"      - SHORT FORM OF ABOVE              *
*                      "KEEP"    - LEAVE (KEEP) ALL MODULES LOADED, *
*                                  THEN GO AWAY                     *
*                      "KE"      - SHORT FORM OF ABOVE              *
*                      "XXXXXXXX"- XXXXXXXX IS THE NAME OF THE      *
*                                  MODULE/SVC TO BE LOADED          *
*                                                                   *
*  INFORMATION ON ALIASES:    ----------WARNING----------           *
*                                                                   *
*        ALIAS SHOULD BE LOADED AFTER LOADING THE TRUE NAME VIA     *
*        MODREP. THIS SHOULD BE DONE TO ASSURE THAT THE MEMORY      *
*        USED BY THE ALIAS ENTRY(S) WILL BE FREED WHEN NECESSARY.   *
*        IF YOU FORGET TO LOAD THE TRUE NAME, THE ONLY DAMAGE IS    *
*        THAT THE MEMORY USED CANNOT BE FREED VIA "DE" OR "DELETE"; *
*        NEVERTHELESS, "DE" OR "DELETE" WILL CAUSE THE CESSATION    *
*        OF USE OF ALL ALIASES. BE AWARE THAT IT IS ONLY NECESSARY  *
*        TO LOAD A SINGLE TRUE NAME AND A SINGLE ALIAS FOR THE      *
*        ROUTINE ENTRY POINT THAT YOU WANT TO TEST; IT IS NOT       *
*        NECESSARY TO LOAD EVERY SINGLE ALIAS FOR A MODULE FOR      *
*        MODREP TESTING PURPOSES. ALSO, BE AWARE THAT AN ALIAS      *
*        ONLY COSTS 48 BYTES FOR THE CDE/XTLST, AND NO MEMORY FOR   *
*        FOR THE MODULE, AND THE ENTIRE MODULE IS LOADED UNDER THE  *
*        TRUE NAME.                                                 *
*                                                                   *
*  INFORMATIONAL MESSAGES:                                          *
*                                                                   *
*        MESSAGE FORMAT-                                            *
*        WTO   'MODREP-XXXXX XXXXX XXXXX',ROUTCDE=(2)               *
*               XXXXX REPRESENTS TEXTS FOUND BELOW ENCLOSED IN      *
*               DOUBLE PARENS.                                      *
*                                                                   *
*                      "LPA REP SUCCESSFUL"                         *
*                      ---THE REQUESTED MODULE HAS BEEN PLACED IN   *
*                         THE LXA (LINK PACK EXTENSION AREA) AND THE*
*                         ACTIVE LPA CHAIN UPDATED WITH THE NEWLY   *
*                         BUILT CDE/XTLST, SO THAT SUBSEQUENT USES  *
*                         OF THE MODULE WILL BE USING THIS          *
*                         REPLACEMENT COPY                          *
*                                                                   *
*                      "SVC REP SUCCESSFUL"                         *
*                      ---THE REQUESTED MODULE HAS BEEN PLACED IN   *
*                         THE NXA (NUCLEUS EXTENSION AREA) IF A     *
*                         TYPE 1 OR TYPE 2 SVC, OR PLACED IN THE    *
*                         LXA (LINK PACK EXTENSION AREA) IF A TYPE  *
*                         3 OR 4 SVC, AND THE SVC TABLE UPDATED     *
*                         SO THAT SUBSEQUENT USES OF THE SVC WILL BE*
*                         USING THIS REPLACEMENT COPY               *
*                                                                   *
*                      NOTE: THE DETERMINATION OF WHETHER OR NOT    *
*                            YOUR MODULE GOES IN THE NXA OR LXA     *
*                            IS BASED ON THE MODULE NAME. IGCXXX    *
*                            IS CONSIDERED A TYPE 1/2 SVC IF XXX    *
*                            IS BETWEEN 0-255 (THESE MODULES GO IN  *
*                            THE NXA). IGC00XXX IS CONSIDERED A TYPE*
*                            3/4 SVC IF XXX IS BEWTEEN 0-255 (THESE *
*                            MODULES GO IN THE LXA). ANY OTHER NAME *
*                            IS CONSIDERED A STANDARD LPA NAME (OR  *
*                            A STANDARD SVC SECOND, THIRD, ETC. LOAD*
*                            AND IS THUS PLACED IN THE LXA). THE    *
*                            NXA AND LXA ARE CONCEPTUAL ONLY, IN    *
*                            REALITY BOTH EXIST IN SP 228.          *
*                                                                   *
*                      "SVCTABLE TYPE INVALID, CHANGED TO TYPE 3"   *
*                      ---YOU HAVE REQUESTED A TYPE 3/4 SVC BE      *
*                         REPLACED IN THE LXA (BASED ON THE NAME YOU*
*                         SUPPLIED (SEE NOTE ABOVE)), BUT THE       *
*                         SVC ENTRY TYPE INDICATES A NON-TYPE 3/4   *
*                         SVC (IE. 1,2,5,6). THEREFORE, THE SVCTABLE*
*                         IS TEMPORARILY UPDATED TO INDICATE THAT   *
*                         THIS SVC IS A TYPE 3. BEFORE FINAL SVC    *
*                         INSTALLATION, BE SURE TO ZAP THE SVCTABLE,*
*                         OR DO ANOTHER I/O GEN SPECIFYING THE      *
*                         CORRECT TYPE OF SVC.                      *
*                                                                   *
*                      "SVCTABLE TYPE INVALID, REQUEST REJECTED"    *
*                      ---YOU HAVE REQUESTED A TYPE 1/2 SVC BE      *
*                         REPLACED IN THE NXA (BASED ON THE NAME YOU*
*                         SUPPLIED (SEE NOTE ABOVE)), BUT THE       *
*                         SVC ENTRY TYPE INDICATES A NON-TYPE 1/2   *
*                         SVC (IE. 3,4,5,6). THEREFORE, THE REQUEST *
*                         IS REJECTED, AS IT IS UNKNOWN WHETHER YOU *
*                         INTENDED A TYPE 1 OR A TYPE 2 (THIS IS    *
*                         VIRTUALLY MEANINGLESS FOR THE ABOVE CASE  *
*                         OF TYPE 3/4 AS THEY ARE ENTERED WITH THE  *
*                         SAME ATTRIBUTES, THEREFORE 3/4 IN THAT    *
*                         CASE WILL SUFFICE). TO CORRECT THIS       *
*                         PROBLEM ON A TEMPORARY BASIS, IN-CORE ZAP *
*                         THE SVCTABLE TYPE TO INDICATE THE TYPE OF *
*                         SVC YOU REQUIRE, THEN RE-ISSUE YOUR       *
*                         COMMAND. BEFORE FINAL SVC INSTALLATION, BE*
*                         SURE TO ZAP THE SVCTABLE, OR DO ANOTHER   *
*                         I/O GEN SPECIFYING THE CORRECT TYPE OF SVC*
*                         (NOTE: THIS WILL MOST LIKELY HAPPEN IN THE*
*                         CASE OF AN UNDEFINED OR TYPE 5 SVC).      *
*                                                                   *
*                      NOTE: SVC'S THAT ARE CURRENTLY DEFINED AS    *
*                            TYPE 5'S, OR CURRENTLY UNDEFINED MAY   *
*                            BE REPLACED IN THE ABOVE MANNER, IT    *
*                            IS NOT NECESSARY TO DO AN I/O GEN PRIOR*
*                            TO TESTING THE SVC(S), BUT IF ANY LOCKS*
*                            ARE NECESSARY THAT ARE NOT ALREADY ON  *
*                            IN THE SVCTABLE ENTRY, THEY MUST BE    *
*                            ZAPPED ON PRIOR TO THE LOADING OF THE  *
*                            SVC BY MODREP, OR THE SVC WILL BE      *
*                            ENTERED WITH INCORRECT LOCK ATTRIBUTES.*
*                                                                   *
*                      "LPA/SVC DELETE(S) SUCCESSFUL"               *
*                      ---IN RESPONSE TO YOUR "DELETE" OR "DE"      *
*                         REQUEST, ALL MODULES AND SVCS CURRENTLY   *
*                         UNDER CONTROL OF MODREP (THIS MODULE) HAVE*
*                         BEEN SUCCESSFULLY REMOVED FROM THE SYSTEM.*
*                         IN THE CASE OF SVC'S, THE SVCTABLE IS     *
*                         PLACED BACK IN IT'S PRE-MODREP (ORIGINAL) *
*                         STATE (INCLUDING SVC TYPE), AND THE NXA   *
*                         MEMORY IS FREED. IN THE CASE OF LPA       *
*                         MODULES, THE CDE/XTLST THAT WERE BUILT    *
*                         FOR THIS MODULE ARE DE-CHAINED, AND THE   *
*                         MEMORY FOR THE CDE/XTLST (SQA) AND LXA    *
*                         MEMORY IS FREED. THE NET RESULT IS THAT   *
*                         EVERYTHING IS AS IT WAS PRIOR TO THE      *
*                         INVOKATION OF MODREP.                     *
*                                                                   *
*                      "ALL LPA/SVC MODS REMAIN RESIDENT"           *
*                      ---IN RESPONSE TO YOUR "KEEP" OR "KE"        *
*                         REQUEST, ALL MODULES AND SVCS CURRENTLY   *
*                         UNDER CONTROL OF MODREP (THIS MODULE) ARE *
*                         RELEASED TO THE SYSTEM FOR PERMANENT USE  *
*                         UNTIL THE NEXT IPL. ONCE THIS HAS TAKEN   *
*                         PLACE, THE ONLY WAY TO GET RID OF THE MOD *
*                         IS TO START ANOTHER COPY OF MODREP AND    *
*                         PLACE A "NEWER" COPY OF THE MOD IN THE    *
*                         SYSTEM. YOU CAN NEVER DELETE ANY MODULE   *
*                         THAT WAS PLACED IN THE SYSTEM WITH A PRIOR*
*                         INVOKATION OF MODREP. THIS CONSIDERATION  *
*                         IS ONLY IMPORTANT IN THE FACT THAT A      *
*                         SUBSEQUENT USE OF THIS MODULE WILL        *
*                         SUCCESSFULLY DO WHAT YOU WANT, BUT THE    *
*                         PREVIOUS INVOKATION'S MEMORY FOR THE      *
*                         CDE/XTLST AND MODULE (NXA,LXA) ARE FIXED, *
*                         AND THUS BECOME WASTED "REAL FRAMES" OF   *
*                         MEMORY. ALSO A CONSIDERATION FOR SVC'S    *
*                         IS THAT MODREP CAN ONLY PLACE THE SVCTABLE*
*                         BACK IN THE STATE IT WAS WHEN MODREP BEGAN*
*                         (ASSUMING YOU ENTER "KEEP" OR "KE"),      *
*                         THEREFORE, THE SVCTABLE CAN NEVER BE      *
*                         PLACED BACK IN IT'S ORIGINAL (AS OF IPL)  *
*                         STATE WITHOUT AN IPL (OR IN-CORE ZAP IF   *
*                         YOU RECORDED THE EPA BEFORE USING MODREP).*
*                         IF IT IS NOT OBVIOUS BY NOW, THE          *
*                         IMPLICATIONS ARE SUCH THAT IF YOU REPLY   *
*                         "KEEP" OR "KE", YOU HAD BETTER MEAN IT!!! *
*                                                                   *
*                      NOTE: THE FAILURE OF THIS MODULE (ABEND) IS  *
*                            AN IMPLIED "KEEP" OR "KE". THERE IS    *
*                            CURRENTLY NO ESTAE ENVIRONMENT, AND IT *
*                            HAS NOT YET PROVEN NECESSARY. THE MOST *
*                            COMMON LOSS OF THE MODULE WILL BE A    *
*                            B23 ABEND DUE THE COMTASK FAILING,     *
*                            THUS THIS TASK'S WTOR CAUSING IT'S     *
*                            FAILURE. SHOULD THIS HAPPEN, YOU HAVE  *
*                            MORE TO WORRY ABOUT THAN MODREP. YOU   *
*                            MAY START A SUBSEQUENT COPY AS         *
*                            EXPLAINED ABOVE, SHOULD THE COMTASK    *
*                            FAILURE (OR ANY OTHER FAILURE) NOT BE  *
*                            PERMANENT.                             *
*                                                                   *
*                      "MODULE UNLOCATABLE"                         *
*                      ---IN RESPONSE TO YOUR "XXXXXXXX" REQUEST,   *
*                         A BLDL TO THE CURRENT PDS (SPECIFIED BY   *
*                         THE //MODREP DD STATEMENT) INDICATES THAT *
*                         THE REQUESTED MODULE DOES NOT EXIST, AND  *
*                         THEREFORE CANNOT BE LOADED. CHECK THAT YOU*
*                         HAVE SPECIFIED THE CORRECT NAME, OR THE   *
*                         CORRECT LIBRARY (SEE "LIB" ON PROC        *
*                         STATEMENT FOR POSSIBLE OVERRIDE)          *
*                                                                   *
*                      "LOCK FAILURE"                               *
*                      ---DURING PROCESSING, A FAILURE TO OBTAIN    *
*                         OR RELEASE A REQUIRED LOCK HAS OCCURRED.  *
*                         ALTHOUGH THIS IS MOST LIKELY A SYSTEM     *
*                         ORIENTED PROBLEM (OR CODE HAS BEEN ADDED  *
*                         INCORRECTLY), THE LAST COMMAND ISSUED MAY *
*                         BE RE-ISSUED TO CHECK THE VALIDITY OF THE *
*                         MESSAGE WITH NO HARM. IF THE MESSAGE      *
*                         PERSISTS TAKE TWO ASPIRIN AND LIE DOWN,   *
*                         OR CHECK TO SEE WHO IS THE CURRENT HOLDER *
*                         OF THE SALLOC OR DISP LOCK, AND FIND OUT  *
*                         WHY HE WILL NOT RELEASE IT (YOU HAVE      *
*                         NOW DEFINITELY UNCOVERED A SYSTEM BUG).   *
*                                                                   *
*                      "SVC REP SUCCESSFUL"                         *
*                      "SQA CRITICAL, REQUEST ABORTED"              *
*                      ---DURING PROCESSING, A CONDITIONAL REQUEST  *
*                         FOR SQA (FOR CDE/XTLST, OR FETCH          *
*                         PRE-PROCESSING CODE) HAS RETURNED A       *
*                         NON-ZERO RETURN CODE, INDICATING THAT SQA *
*                         IS NOT CURRENTLY AVAILABLE. THE LAST      *
*                         COMMAND ISSUED MAY BE RE-ISSUED TO CHECK  *
*                         THE VALIDITY OF THE MESSAGE WITH NO HARM. *
*                         IF THE MESSAGE PERSISTS, CHECK THE CURRENT*
*                         SQA LEVEL, DETERMINE WHO IS USING IT AND  *
*                         WHY, AND WAIT UNTIL IT IS RELEASED, OR IF *
*                         NECESSARY, RE-IPL SPECIFYING MORE SQA     *
*                         (OR CSA FOR EXPANSION).                   *
*                                                                   *
*                      "RESPONSE LOST-REENTER"                      *
*                      ---DURING PROCESSING, A FREEMAIN REQUEST FOR *
*                         CSA OBTAINED BY THIS MODULE HAS FAILED.   *
*                         RE-ENTER THE LAST COMMAND, AND THE        *
*                         FREEMAIN WILL BE RE-ATTEMPTED. IF THE     *
*                         CONDITION PERSISTS, REPLY "DISPLAY" OR    *
*                         "DI" TO FIND WHICH MODULES ARE STILL UNDER*
*                         MODREP'S CONTROL. THE MODULES LISTED ARE  *
*                         THOSE THAT CANNOT BE FREED. ENTER "KEEP"  *
*                         OR "KE" TO ALLOW MODREP TO SHUTDOWN       *
*                         NORMALLY, THEN IF THOSE MODULES LISTED    *
*                         SHOULD HAVE BEEN REPLACED BY THE ORIGINALS*
*                         IT WILL BE NECESSARY TO START MODREP AGAIN*
*                         RUNNING AGAINST THE LIBRARY WHERE THE     *
*                         ORIGINAL MOUDLES ARE, AND USING MODREP TO *
*                         RE-LOAD THE ORIGINALS. THIS CONDITION     *
*                         SHOULD NEVER PERSIST FOR MORE THAN THREE  *
*                         ATTEMPTS, IF IT DOES USE DRISTAN NASAL    *
*                         DECONGESTIVE, THEN LOOK AT THE PROGRAM    *
*                         LOGIC.                                    *
*                                                                   *
*                                                                   *
*                      "ALREADY LOADED, IGNORED"                    *
*                      ---YOU HAVE REQUESTED THAT MODREP LOAD A     *
*                         MODULE WHICH HAS ALREADY BEEN LOADED BY   *
*                         MODREP DURING THIS SESSION. THE REQUEST   *
*                         IS IGNORED. IF YOU MUST LOAD ANOTHER COPY *
*                         EITHER USE MODREP TO DELETE THE CURRENT   *
*                         ONE, OR IF YOU HAVE MULTILPLE MODULES     *
*                         UNDER MODREPS CONTROL AND YOU DO NOT WISH *
*                         TO DELETE ALL THE MODULES (WHICH "DELETE" *
*                         OR "DE" DOES), START ANOTHER COPY OF      *
*                         MODREP, AND LOAD YOUR MODULE USING THE    *
*                         NEW COPY.                                 *
*                                                                   *
*                      "SLOT TABLE OVERFLOW"                        *
*                      ---AFTER LOADING THE REQUESTED MODULE, MODREP*
*                         FOUND NO SPACE IN HIS "SLOT TABLE" TO     *
*                         RECORD NECESSARY INFORMATION FOR LATER    *
*                         DELETEION. THE MODULE JUST LOADED CANNOT  *
*                         BE DELETED. FOR A TEMPORARY SOLUTION (IF  *
*                         THE MODULE MUST BE DELETED, USE THE       *
*                         PROCEDURE DEFINED IN THE SECTION ABOVE    *
*                         FOR THE "RE-LOADING" OF THE ORIGINAL COPY.*
*                         AS A FINAL SOLUTION, QUIT BEING A TURKEY  *
*                         AND DON'T LOAD OVER 20 MODULES AT A TIME  *
*                         WITH MODREP. OR...IF YOU MUST PERSIST IN  *
*                         BEING A TURKEY, INCREASE THE MULTIPLIER   *
*                         AT CONSTANT NAMTABLE TO THE MAXIMUM AMOUNT*
*                         OF LOADS REQUIRED.                        *
*                                                                   *
*                      "PDS OPEN FAILED"                            *
*                      ---MODREP WAS UNABLE TO OPEN THE PDS NAMED   *
*                         IN THE //MODREP DD STATEMENT IN YOUR      *
*                         PROC.  START MODREP AGAIN, IF THE FAILURE *
*                         PERSISTS, CHECK TO BE SURE THE DATA SET   *
*                         IS INTACT. FOR A TEMPORARY SOLUTION, MOVE *
*                         THE NECESSARY MODULES TO ANOTHER LIBRARY. *
*                                                                   *
*                      "INTERNAL CDE CHAIN ERROR"                   *
*                      ---INTERNAL PROCESSING HAS FOUND A GLITCH    *
*                         IN THE SYSTEM BUILT CDE AS A RESULT OF    *
*                         AN INTERNAL LOAD. ALL MODULES CURRENTY    *
*                         LOADED ARE KEPT, AND MODREP DUMPS WITH    *
*                         A USER 100.                               *
*                                                                   *
*                      "INTERNAL LLE CHAIN ERROR"                   *
*                      ---INTERNAL PROCESSING HAS FOUND A GLITCH    *
*                         IN THE SYSTEM BUILT LLE AS A RESULT OF    *
*                         AN INTERNAL LOAD. ALL MODULES CURRENTY    *
*                         LOADED ARE KEPT, AND MODREP DUMPS WITH    *
*                         A USER 200.                               *
*                                                                   *
*                      "XXXXXXXX EP YYYYYY"                         *
*                      ---IN RESPONSE TO YOUR "DISPLAY" OR "DI"     *
*                         COMMAND, THE MODULE NAMED XXXXXXXX HAS    *
*                         AN EP OF YYYYYY.  ALL MODULES CURRENTY    *
*                         LOADED ARE LISTED.                        *
*                                                                   *
*                      "NO MODS IN USE"                             *
*                      ---IN RESPONSE TO YOUR "DISPLAY" OR "DI"     *
*                         COMMAND, MODREP HAS DETERMINED THAT       *
*                         NO MODULES ARE CURRENTLY UNDER HIS        *
*                         CONTROL.                                  *
*                                                                   *
*                                                                   *
*                                                                   *
*********************************************************************
         EJECT
R0       EQU   0
R1       EQU   1
R2       EQU   2
R3       EQU   3
R4       EQU   4
R5       EQU   5
R6       EQU   6
R7       EQU   7
R8       EQU   8
R9       EQU   9
R10      EQU   10
R11      EQU   11
R12      EQU   12
R13      EQU   13
R14      EQU   14
R15      EQU   15
         EJECT
         TITLE  'MODREP INITIALIZATION SECTION'
MODREP   CSECT                            INITIALIZATION
         SPACE 3
         STM   R14,R12,12(R13)            SAVE CALLER'S REGS
         LR    R12,R15                    ZERO BASE
         USING MODREP,R12                 TELL ASSEMBLER THE NEWS
         LA    R11,SAVE                   SAVE
         ST    R11,8(R13)                 AREA
         ST    R13,4(R11)                 CHAIN
         LR    R13,R11                    CONVENTIONS
         MODESET KEY=ZERO,MODE=SUP        FOR LOCK
         SETLOCK OBTAIN,TYPE=SALLOC,MODE=UNCOND,REGS=SAVE,             X
               RELATED=('REL0')
         LTR   R15,R15                    GET IT?
         BNZ   LOCKFAIL                   NO.
         LA    R1,LENGTH                  FETCH PATCH LENGTH
         GETMAIN RC,LV=(R1),SP=245,BRANCH=(YES,GLOBAL)
         LTR   R15,R15                    GET IT?
         BNZ   SQAFAIL                    NO. YUK.
         ST    R1,SAVESQA                 YES.
         SPACE 3
REL0     DS    0H                         FREE AP/MP FOR SQA
         SPACE 3
         SETLOCK RELEASE,TYPE=SALLOC,REGS=SAVE,RELATED=('SET1')
         LTR   R15,R15                    REL IT?
         BNZ   LOCKFAIL                   NO.
         L     R2,X'10'                   CVT
         LA    R1,X'2D0'(,R2)             CVTFETCH
         ST    R1,AFETCHEP                SAVE
         L     R1,X'2D0'(,R2)             CVTFETCH EP
         ST    R1,RFETCHEP                SAVE
         L     R2,SAVESQA                 GOTTEN PATCH
         ST    R2,MFETCHEP                SAVE
         MVC   0(LENGTH,R2),FETCHPAT      RELOCATE PATCH
         SPACE 3
PATCHTIO DS    0H                         DUMMY UP TIOT
         SPACE 3
         L     R2,X'10'                   THIS IS TO
         L     R2,0(,R2)                  BE ABSOLUTELY
         L     R2,4(,R2)                  SURE THAT THIS
         L     R2,12(,R2)                 MODULE DOES NOT
         MVC   0(16,R2),TIOT              GET LOADED TO CSA
         MODESET KEY=NZERO
         B     OPEN
         EJECT
         TITLE  'MODREP OPEN LIBRARY SECTION'
         SPACE 3
OPEN     DS    0H                         OPEN MODREP LIB
         SPACE 3
         OPEN  DCB
         LA    R1,DCB                     IS
         USING IHADCB,1                   OPEN
         TM    DCBOFLGS,DCBOFOPN          GOOD?
         BZ    OPENFAIL                   NO.
         B     WTOR                       YES.
         EJECT
         TITLE  'MODREP WTOR RESPONSE HANDLING SECTION'
         SPACE 3
WTOR     DS    0H
         SPACE 3
         XC    REPLY(8),REPLY             CLEAR REPLY AREA
         XC    ECBAD(4),ECBAD             AND ASSOCIATED ECB
         WTOR  'MODREP READY',REPLY,8,ECBAD,ROUTCDE=(2)
         WAIT  ECB=ECBAD                  DO THE "HO-HUM"
         OC    REPLY,=CL8' '              UPPER CASE
         CLC   =C'DISPLAY',REPLY          DISPLAY STATUS?
         BE    DISPLAY                    YES.
         CLC   =C'DI',REPLY               DISPLAY STATUS?
         BE    DISPLAY                    YES.
         CLC   =C'DELETE',REPLY           DELETE MODS?
         BE    DELETE                     YES.