         MACRO
&NAME    @RET  &EQ,&RC=,&FREE=YES
.*..................................>> SEE @ENT MACRO FOR CREDITS
         GBLC  &LV,&SP                 GLOBALS-SET IN @ENT
&NAME    LR    2,13                    SAVE CURRENT SAVE AREA
         L     13,4(13)                GET CALLER SAVE AREA
         AIF   ('&RC' EQ '').L0        SKIP IF R15 ALREADY SET
         LA    15,&RC                  LOAD THE RETURN CODE
.L0      STM   15,1,16(13)             STORE RETURN REGS
         AIF   ('&LV' EQ '').L1        ANYTHING TO FREE?
         AIF   ('&FREE' EQ 'NO').L1    OVERRIDE FREE CODE?     25JUL84
         FREEMAIN R,LV=&LV,SP=&SP,A=(2) FREE THE AREA
.L1      RETURN (14,12),T              RETURN TO CALLER
         AIF   ('&EQ' NE 'EQ').L4      REGISTERS TOO?
R0       EQU   0
R1       EQU   1
R2       EQU   2
R3       EQU   3
R4       EQU   4
R5       EQU   5
R6       EQU   6
R7       EQU   7
R8       EQU   8
R9       EQU   9
RA       EQU   10
RB       EQU   11
RC       EQU   12
RD       EQU   13
RE       EQU   14
RF       EQU   15
R10      EQU   10
R11      EQU   11
R12      EQU   12
R13      EQU   13
R14      EQU   14
R15      EQU   15
.L4      MEND
