Adding return/abend codes to the notify message


IEFACTRT modified Assembler source

         MACRO
&NAME    J16MCODE &TYPE=
.**********************************************************************
.* MACRO NAME  = J16MCODE                                             *
.* DESCRIPTION = MACRO TO GENERATE ASSEMBLER  CODE TO ACQUIRE         *
.*               ECSA MEMORY BLOCK TO RECORD USER INFORMATION         *
.*               RETURN OR ABEND CODE                                 *
.**********************************************************************
.*
         LCLC  &SUF                     LOCAL VARIABLE SUFFIX
         LCLA  &L                       LOCAL VARIABLE LENGHT
.*
.**********************************************************************
         AIF   ('&TYPE' EQ 'C').INIT
         AIF   ('&TYPE' EQ 'U').INIT
         AIF   ('&TYPE' EQ 'S').INIT
         AIF   ('&TYPE' EQ '').ERR1
         AGO   .ERR0
.*
.INIT    ANOP
&SUF     SETC  '&TYPE&TYPE'
&L       SETA  24
.**********************************************************************
.* * *         PROCESS TYPE PARAMETER                             * * *
.**********************************************************************
************************************ START CODE FOR JES EXIT 16
         CLC   JMRUCOM,=F'0'       USER COMM. AREA INITIAL SETTING?
         BNE   NOGETM&SUF          NO, SKIP CSA GET MEMORY
*   GET CSA MEMORY UPPER, IF ANY, IN JES2 KEY (I.E. 1)
         STORAGE OBTAIN,LENGTH=&L,SP=241,KEY=1,LOC=ANY,BNDRY=DBLWD,    X
               COND=YES
         LTR   R15,R15             TEST RETURN CODE
         BNZ   NOMEM&SUF
**********************************************************************
** LAYOUT OF CSA MEMORY ACQUIRED: LLNNNNNNNNPPPPPPPPFFCCCC          **
**                                012345678901234567890123          **
** LL       = LENGTH OF AREA ACQUIRED 24 BYTES                      **
** NNNNNNNN = STEP NAME                                             **
** PPPPPPPP = PROC STEP NAME                                        **
** FF       = STATUS FLAG (SS=SYSABEND - UU=USERABEND - CC=RETCODE) **
** CCCC     = RC OR ABEND CODE                                      **
**********************************************************************
         ST    R01,JMRUCOM         STORE ADDRESS IN COMM. AREA
         B     MOVE&SUF
NOGETM&SUF EQU   *
         L     R01,JMRUCOM         LOAD R01 WITH PTR USER AREA ACQUIRED
         AIF   ('&SUF' NE 'CC').NOCC
         CLC   &L-4(4,R01),RC+K1   COMPARE STEP COND CODE
         BH    NOACT&SUF           MOVE IF NEW HIGHTER
.NOCC    ANOP
MOVE&SUF EQU   *
         MVC   0(2,R01),=C'&L'     MOVE LENGTH OF AREA IN LL FIELD
         MVC   2(8,R01),STEPNAME   MOVE STEPNAME IN NNNNNNNN FIELD
         MVC   10(8,R01),PROCSTEP  MOVE PROCSTEP IN PPPPPPPP FIELD
         MVC   18(2,R01),=C'&SUF'  MOVE VALUE IN STATUS FLAG
         MVC   20(4,R01),RC+K1     MOVE CODE IN CCCC FIELD
         B     NOACT&SUF           EXIT
NOMEM&SUF EQU   *
         MVC   JMRUCOM,=F'0'       INITIAL SETTING OF COMM.AREA
NOACT&SUF EQU   *
************************************ END   CODE FOR JES EXIT 16
.*
         AGO   .EXIT
.**********************************************************************
.*****         MACRO ERROR EXITS                                 ******
.**********************************************************************
.*
.ERR0    MNOTE 12,'INVALID TYPE - ABORTED; SPECIFY "C", "S" OR "U"'
         AGO   .EXIT
.ERR1    MNOTE 12,'TYPE PARAMETER MUST BE SPECIFY- ABORTED'
         AGO   .EXIT
.*
.EXIT    ANOP
         MEXIT
         MEND
.*
IEFACTRT TITLE 'SMF JOB/STEP TERMINATION EXIT ROUTINE     '
*/* LIB:  IPO1.SAMPLIB(SMF4CTRT)
*/* GDE:  CBIPO MVS CUSTOMIZATION
*/* DOC:  THIS SAMPLE SMF EXIT ROUTINE PUTS JOB SUMMARY MESSAGES
*/*       TO THE JOB LOG WITH STEP TERMINATION STATUS.
***********************************************************************
*             MODULE NAME = IEFACTRT                                  *
*             DESCRIPTIVE NAME =  CUSTOM-BUILT IPO SUPPLIED           *
*                SMF EXIT ROUTINE TO PUT MESSAGES ON JOB LOG WITH     *
*                STEP TERMINATION STATUS.                             *
*             COPYRIGHT = 5751-CS1                                    *
*                         INTERNATIONAL BUSINESS MACHINES             *
*                         CORPORATION, 1983, 1988, 1990               *
*             FUNCTION =                                              *
*                PUT MESSAGES VIA WTO ON JOB LOG.                     *
*                OPERATION =                                          *
*                   FOR JOB STEP TERMINATION PUT STATISTICS OF STEP.  *
*                   FOR JOB TERMINATION PUT OUT JOB ENDED MESSAGE.    *
*   -CHANGED THE WAY STEPNAME AND PROCSTEPNAME ARE OBTAINED           *
*      TO HAVE LESS DEPENDENCY ON CSCB STRUCTURE. THIS WILL ONLY      *
*      WORK ON MVS4.1.0 OR HIGHER.                                    *
*              NOTES =                                                *
*                 DEPENDENCIES = CHARACTER SET IS EBCDIC.  REASSEMBLE *
*                    IF A DIFFERENT CHARACTER SET IS NEEDED.          *
*                 RESTRICTIONS = NONE                                 *
*                 REGISTER CONVENTIONS = STANDARD CONVENTIONS.        *
*                    REGISTERS 0 TO 1  = WORK REGISTERS               *
*                    REGISTERS 2 TO 5  = UNUSED                       *
*                    REGISTER  6       = OUTPUT LINE REGISTER         *
*                    REGISTER  7       = COMMON PARAMETER AREA        *
*                    REGISTERS 8 TO 11 = UNUSED                       *
*                    REGISTER  12      = ADDRESSABILITY TO IEFACTRT   *
*                                        CSECT                        *
*                    REGISTER  13      = ADDRESSABILITY TO DATA DSECT *
*                    REGISTERS 14,15   = WORK REGISTERS               *
*                PATCH LABEL = PATCH (UNUSED AND INTIALIZED TO        *
*                   BINARY ZEROES)                                    *
*             MODULE TYPE = PROCEDURE                                 *
*                PROCESSOR = MUST BE ASSEMBLED WITH ASSEMBLER H       *
*                   VERSION 2                                         *
*                MODULE SIZE = 1200 BYTES                             *
*                ATTRIBUTES = KEY 0, REENTRANT,                       *
*                   SUPERVISOR STATE, ENABLED, NO LOCKS HELD          *
*             ENTRY POINTS = IEFACTRT (ONLY ENTRY POINT)              *
*                LINKAGE =                                            *
*             INPUT = REG1 POINTS TO LIST OF FULLWORD ADDRESSES       *
*                     AS FOLLOWS.                                     *
*                 1.  PTR TO COMMON EXIT PARAMETER AREA               *
*                 2.  PTR TO STEPNAME FIELD                           *
*                 3.  PTR TO PROGRAMMER NAME FIELD                    *
*                 4.  PTR TO JOB TCB CPU TIME FIELD                   *
*                 5.  PTR TO JOB ACCOUNTING FIELDS                    *
*                 6.  PTR TO STEP TCB CPU TIME FIELD                  *
*                 7.  PTR TO STEP ACCOUNTING FIELDS                   *
*                 8.  PTR TO CANCEL FLAG & STEP NUMBER                *
*                 9.  PTR TO CONDITION CODE FIELD                     *
*                10.  PTR TO SMF RECORD TO BE WRITTEN                 *
*             OUTPUT = NONE                                           *
*             EXIT - NORMAL = AT PROGRAM END VIA BRANCH AND SET MODE  *
*                             (BSM 0,14)                              *
*                OUTPUT = NONE                                        *
*                RETURN CODE = ZERO                                   *
*             EXIT - ERROR = NONE                                     *
*                OUTPUT = NONE                                        *
*                RETURN CODE = ZERO                                   *
*             EXTERNAL REFERENCES =                                   *
*                ROUTINES = NONE                                      *
*                DATA AREAS = NONE                                    *
*                CONTROL BLOCKS = NONE                                *
*             TABLES = NONE                                           *
*             MACROS = SAVE, WTO, RETURN, GETMAIN, FREEMAIN, ESTAE,   *
*                      SETRP, IFASMFR, IEFJMR, IHASDWA, SPLEVEL       *
*             CHANGE ACTIVITY = HAS BEEN UPDATED TO RUN ON MVS/XA     *
*                ON 31-BIT MODE ABOVE THE LINE.                       *
*                IT PROVIDES THE TOTAL DEVICE CONNECT TIME IN MS      *
*                FOR EACH STEP IN ADDITION TO THE EXCP COUNT          *
*                THIS PROGRAM WILL NOT RUN ON MVS/370                 *
*             MESSAGES =                                              *
*                STEP TERMINATION LINE AND JOB TERMINATION LINE.      *
*             ABEND CODES = NONE                                      *
*             10/26/89 FIX FOR APAR OY24316                     OY24316
*             02/12/92 FIX FOR APAR OY51685                     OY51685
***********************************************************************
         EJECT
IEFACTRT CSECT ,
IEFACTRT AMODE 31                                             IPOXA
IEFACTRT RMODE ANY                                            IPOXA
*
* CONSTANT ADDRESS EQUATES
*
PSAAOLD  EQU    X'224',4    ADDRESS IN PSA OF CURRENT ASCB
*
* CONSTANT EQUATES
*
K0       EQU   00                  NON-RELOCATABLE CONSTANT 00
K1       EQU   01                  NON-RELOCATABLE CONSTANT 01
K2       EQU   02                  NON-RELOCATABLE CONSTANT 02
K3       EQU   03                  NON-RELOCATABLE CONSTANT 03
K4       EQU   04                  NON-RELOCATABLE CONSTANT 04
K5       EQU   05                  NON-RELOCATABLE CONSTANT 05
K6       EQU   06                  NON-RELOCATABLE CONSTANT 06
K7       EQU   07                  NON-RELOCATABLE CONSTANT 07
K8       EQU   08                  NON-RELOCATABLE CONSTANT 08
K9       EQU   09                  NON-RELOCATABLE CONSTANT 09
KA       EQU   10                  NON-RELOCATABLE CONSTANT 10
KB       EQU   11                  NON-RELOCATABLE CONSTANT 11
KC       EQU   12                  NON-RELOCATABLE CONSTANT 12
KD       EQU   13                  NON-RELOCATABLE CONSTANT 13
KE       EQU   14                  NON-RELOCATABLE CONSTANT 14
KF       EQU   15                  NON-RELOCATABLE CONSTANT 15
*
* CONSTANT EQUATES
*
SUBPOOL  EQU   229                 USE SUBPOOL 229 FOR GETMAIN
CK       EQU   C'K'                CONSTANT CHAR 'K'
CASTR    EQU   C'*'                CONSTANT CHAR '*'
C0       EQU   C'0'                CONSTANT CHAR '0'
         IEZBITS
*
* REGISTER EQUATES
*
R00      EQU   00                  REG 00 - WORK REG
R01      EQU   01                  REG 01 - WORK/PARMETER REG
R02      EQU   02                  REG 02 - WORK REG
R03      EQU   03                  REG 03 - WORK REG
R04      EQU   04                  REG 04 - UNUSED
R05      EQU   05                  REG 05 - UNUSED
R06      EQU   06                  REG 06 - BASE FOR OUTPUT LINE
R07      EQU   07                  REG 07 - BASE FOR COMMON PARM AREA
R08      EQU   08                  REG 08 - BASE FOR BLDL LIST
R09      EQU   09                  REG 09 - BASE FOR SMF RECORD
R10      EQU   10                  REG 10 - UNUSED
R11      EQU   11                  REG 11 - UNUSED
R12      EQU   12                  REG 12 - CSECT BASE REG
R13      EQU   13                  REG 13 - DATA DSECT BASE REG
R14      EQU   14                  REG 14 - LINKAGE REGISTER
R15      EQU   15                  REG 15 - WORK REG
         EJECT
* SPLEVEL IS CALLED TO REQUEST THE MVS/XA EXPANSION
         SPLEVEL SET=2             GET MVS/XA LABEL IF REQ'D AS WE
*                                  RUN IN 31-BIT MODE
         SAVE  (14,12),,IEFACTRT_R01.0_&SYSDATE._&SYSTIME
         USING IEFACTRT,R12        SET UP CSECT ADDRESSABILITY
         LR    R12,R15             LOAD BASE REGISTER
         USING DATA,R13            SET UP DATA DSECT ADDR.
         USING JMR,R07             SET UP ADDRESSABILITY TO COMMON
         L     R07,PARMEPRM-PARMS(K0,R01) COMMON AREA ADDRESS
         TM    JMRINDC,JMRFIND     IS IT TIME SHARING USER?
         BO    QUICKOUT            YES, EXIT BEFORE GETMAIN
         GETMAIN RU,LV=LDATA,SP=SUBPOOL GET STORAGE           IPOXA
         ST    R13,SAVEBK-SAVE(,R01) SAVE CALLER'S SAVE AREA ADDR
         ST    R01,SAVEFW          SAVE MY SAVE AREA ADDRESS
         LR    R15,R01             SAVE GETMAINED STORE ADDRESS
         L     R01,SAVER1          RELOAD REGISTERS AFTER GETMAIN
         L     R02,SAVER0          RELOAD REG2 WITH REG0 ENTRY  CODE
         LR    R13,R15             LOAD REGISTER 13 WITH GETMAINED ADDR
         MVC   PARMS(LPARMS),K0(R01) SAVE INPUT PARMS
*------- SET UP RECOVERY ENVIRONMENT
         LA    R00,RTRYRTN1            RETRY ROUTINE - NO SDWA
         ST    R00,ESTAPARM            STORE IN PARAMETER LIST
         LA    R00,RTRYRTN2            RETRY ROUTINE - WITH SDWA
         ST    R00,ESTAPARM+K4         STORE IN PARAMETER LIST
         STM   R12,R13,ESTAPARM+K8     STORE BASE & DATA REG IN PARM
         MVC   ESTAEW(LESTAEL),ESTAEL  MOVE IN ESTAE PARAMETER LIST
         ESTAE RECOVERY,CT,PARAM=ESTAPARM,MF=(E,ESTAEW) SETUP RCVRY
*------- DETERMINE REASON FOR ENTRY  STEP/JOB TERMINATION
         L     R09,PARMRECD        LOAD ADDRESS OF SMF RECORD
         C     R02,R30CODE         WAS ENTRY CODE FOR REC30     MSEIPO4
         BNE   EXIT                NO - EXIT                    MSEIPO4
         USING SMFRCD30,R09                                     MSEIPO4
         CLI   SMF30SON+1,K1       CHECK IF SS SEGMENT IS THERE MSEIPO4
         BL    EXIT                NO - EXIT                    MSEIPO4
         CLI   SMF30UON+1,K1       CHECK IF CONTINUATION RECORD MSEIPO4
         BL    EXIT                YES- EXIT                    MSEIPO4
         LR    R04,R09             GET RECORD ADDRESS           MSEIPO4
         A     R04,SMF30SOF        POINT TO SS SEGMENT          MSEIPO4
         USING SMF30PSS,R04                                     MSEIPO4
         CLC   SMF30TYP,R30JOB     WAS IT JOB TERMINATION       MSEIPO4
         BE    JOBTERM             YES, HANDLE JOB TERM         MSEIPO4
         CLC   SMF30TYP,R30STEP    WAS IT STEP TERMINATION      MSEIPO4
         BNE   EXIT                EXIT IF NOT                  MSEIPO4
         DROP  R04                                              MSEIPO4
         EJECT
*        HANDLE STEP TERMINATION CONDITIONS
*
STEPTERM DS    0H                  ENTRY FROM STEP TERMINATION
         LA    R06,WTO1TXT         GET ADDRESS OF WTO TEXT AREA
         USING LINE2,R06           SET UP ADDRESSABILITY TO LINE
         L     R01,PARMINDC        LOAD ADDRESS OF STEP NO
         CLI   K1(R01),K1          IS IT STEP 1?
         BNE   NOTFIRST            NO, BR PAST HEADER LINE
         MVC   WTO1TXT,LINE3A      MOVE HEADER LINE 1 TO OUTPUT
         BAL   R14,MSGRTN          PUT OUT LINE
         MVC   WTO1TXT,LINE3       MOVE SECOND HEADER
         BAL   R14,MSGRTN          PUT IT OUT
NOTFIRST MVI   WTO1TXT,C' '        INIT OUTPUT LINE TO BLANKS
         MVC   WTO1TXT+K1(L'WTO1TXT-K1),WTO1TXT COPY BLANKS
         MVC   JOBNAME,JMRJOB      MOVE JOBNAME INTO LINE
         L     R01,PSAAOLD         GET ADDRESS OF CURRENT ASCB
         L     R01,ASCBJBNI-ASCB(,R01) GET ADDRESS OF CHNAME
         LTR   R01,R01                 BATCH JOB                OY51685
         BNZ   GOTASCB                 YES, GO ON               OY51685
         L     R01,PSAAOLD             RELOAD ASCB              OY51685
         L     R01,ASCBJBNS-ASCB(,R01) GET STC/MOUNT ID         OY51685
GOTASCB  EQU   *                                                OY51685
         LA    R00,CHNAME-CSCX         GET CHNAME OFFSET
         SLR   R01,R00                 GET CSCX ADDRESS
         L     R01,CHCSCBP-CSCX(,R01)  GET CSCB ADDRESS
         USING CSCB,R01
         CLI   CHPROCSN,C' '       IS PROC STEP NAME BLANK?
         BNH   NOPROC              YES, DO NOT MOVE IT IN
         MVC   PROCSTEP,CHPROCSN MOVE IN PROC STEP NAME
NOPROC   CLI   CHSTEP,C' '         IS STEP NAME BLANK?
         BNH   PUTMSG1             YES, DO NOT MOVE IT IN
         MVC   STEPNAME,CHSTEP MOVE IN STEP NAME
         DROP  R01                                              MSEIPO4
*                                                               MSEIPO4
* GET INFORMATION FROM COMPLETION SEGMENT                       MSEIPO4
*                                                               MSEIPO4
PUTMSG1  DS    0H                  CONTINUE PROCESSING
         CLI   SMF30TON+1,K1       DOES COMPL SEGM EXIST        MSEIPO4
         BL    PUTMSG1A            NO - GOTO NEXT SEGMENT       MSEIPO4
         LR    R04,R09             GET RECORD ADDRESS           MSEIPO4
         A     R04,SMF30TOF        POINT TO SS SEGMENT          MSEIPO4
         USING SMF30CMP,R04                                     MSEIPO4
         LA    R01,SMF30STI
         SLR   R00,R00
         ICM   R00,K3,SMF30SCC     GET COND CODE
         BAL   R14,PRETCDE         CALL RETURN CODE ROUTINE
         DROP  R04                                              MSEIPO4
*                                                               MSEIPO4
* GET INFORMATION FROM PERFORMANCE SECTION                      MSEIPO4
*                                                               MSEIPO4
PUTMSG1A DS    0H                  CONTINUE PROCESSING          MSEIPO4
         CLI   SMF30PON+1,K1       DOES PERFORMANCE SECT EXIST  MSEIPO4
         BL    PUTMSG1B            NO - GOTO NEXT SEGMENT       MSEIPO4
         LR    R04,R09             GET RECORD ADDRESS           MSEIPO4
         A     R04,SMF30POF        POINT TO PERFORM SEGMENT     MSEIPO4
         USING SMF30PRF,R04                                     MSEIPO4
         L     R01,SMF30SRV        SET SERVICE UNITS USED       MSEIPO4
         BAL   R14,PCOUNT          CALL CONVERT ROUTINE
         MVC   SERV,DWORD+L'DWORD-L'SERV MOVE TO OUTPUT LINE
         DROP  R04                                              MSEIPO4
*                                                               MSEIPO4
* GET INFORMATION FROM ID SEGMENT                               MSEIPO4
*                                                               MSEIPO4
PUTMSG1B DS    0H                  CONTINUE PROCESSING          MSEIPO4
         CLI   SMF30ION+1,K1       DOES ID SEGMENT EXIST        MSEIPO4
         BL    PUTMSG1C            NO - GOTO NEXT SEGMENT       MSEIPO4
         LR    R04,R09             GET RECORD ADDRESS           MSEIPO4
         A     R04,SMF30IOF        POINT TO ID SEGMENT          MSEIPO4
         USING SMF30ID,R04                                      MSEIPO4
         LH    R01,SMF30PGN        GET PERFORMANCE GROUP NUM    MSEIPO4
         BAL   R14,PCOUNT          CALL CONVERT ROUTINE
         MVC   PG,DWORD+L'DWORD-L'PG MOVE TO OUTPUT LINE
         TIME  BIN                 GET TIME IN HUNDREDS/SEC     MSEIPO4
         LR    R01,R00             LOAD STEP TERM INTO REG 1    MSEIPO4
         ICM   R00,15,SMF30SIT     LOAD STEP INIT TIME          MSEIPO4
         BAL   R14,PCLOCK          CONVERT IT
         MVC   CLOCK,DWORD+L'DWORD-L'CLOCK-K2 MOVE TO OUTPUT LINE
         DROP  R04                                              MSEIPO4
*                                                               MSEIPO4
* GET INFORMATION FROM STORAGE AND PAGING SECTION               MSEIPO4
*                                                               MSEIPO4
PUTMSG1C DS    0H                  CONTINUE PROCESSING          MSEIPO4
         CLI   SMF30RON+1,K1       DOES STORAGE SECTION EXIST   MSEIPO4
         BL    PUTMSG1D            NO - GOTO NEXT SEGMENT       MSEIPO4
         LR    R04,R09             GET RECORD ADDRESS           MSEIPO4
         A     R04,SMF30ROF        POINT TO ID SEGMENT          MSEIPO4
         USING SMF30SAP,R04                                     MSEIPO4
         L     R01,SMF30NSW        GET NUMBER OF SWAPS          MSEIPO4
         BAL   R14,PCOUNT          CONVERT IT
         MVC   SWAPS,DWORD+L'DWORD-L'SWAPS MOVE IT TO OUTPUT
         L     R01,SMF30PGI        GET NUMBER OF PAGE INS       MSEIPO4
         A     R01,SMF30PGO        ADD NUMBER OF PAGE OUTS      MSEIPO4
         BAL   R14,PCOUNT          CONVERT COUNT
         MVC   PAGE,DWORD+L'DWORD-L'PAGE MOVE TO OUTPUT LINE
         L     R01,SMF30PSI        GET NUMBER OF SWAP PAGE INS  MSEIPO4
         A     R01,SMF30PSO        ADD NUMBER OF SWAP PAGE OUTS MSEIPO4
         BAL   R14,PCOUNT          CONVERT COUNT
         MVC   SWAP,DWORD+L'DWORD-L'SWAP MOVE TO OUTPUT LINE
         L     R01,SMF30VPI        GET NUMBER OF VIO PAGE INS   MSEIPO4
         A     R01,SMF30VPO        ADD NUMBER OF VIO PAGE OUTS  MSEIPO4
         BAL   R14,PCOUNT          CONVERT COUNT
         MVC   VIO,DWORD+L'DWORD-L'VIO MOVE TO OUTPUT LINE
         DROP  R04                                              MSEIPO4
*                                                               MSEIPO4
* GET INFORMATION FROM CPU ACCOUNTING SECTION                   MSEIPO4
*                                                               MSEIPO4
PUTMSG1D DS    0H                  CONTINUE PROCESSING          MSEIPO4
         SLR   R00,R00             CLEAR REG 0
         L     R01,PARMSTPC        LOAD STEP TCB CPU TIME ADDR
         ICM   R01,K7,K0(R01)      LOAD STEP TCB CPU TIME       MSPIPOI
         LA    R01,K0(,R01)        ZERO HIGH ORDER BYTE
         BAL   R14,PCLOCK          CONVERT FOR OUTPUT
         MVC   TCB,DWORD+L'DWORD-L'TCB-K1 MOVE TO OUTPUT LINE
         CLI   SMF30CON+1,K1       DOES CPU/ACC SECTION EXIST   MSEIPO4
         BL    PUTMSG1E            NO - GOTO NEXT SEGMENT       MSEIPO4
         LR    R04,R09             GET RECORD ADDRESS           MSEIPO4
         A     R04,SMF30COF        POINT TO ID SEGMENT          MSEIPO4
         USING SMF30CAS,R04                                     MSEIPO4
         SLR   R00,R00             CLEAR REG 0
         LR    R01,R00             CLEAR REG 1
         ICM   R01,KF,SMF30CPS     LOAD SRB TIME                MSPIPOI
         BAL   R14,PCLOCK          CONVERT IT
         MVC   SRB,DWORD+L'DWORD-L'SRB-K1 MOVE IT TO OUTPUT LINE
         DROP  R04                                              MSEIPO4
*                                                               MSEIPO4
* GET INFORMATION FROM I/O ACTIVITY SEGMENT                     MSEIPO4
*                                                               MSEIPO4
PUTMSG1E DS    0H                  CONTINUE PROCESSING          MSEIPO4
         CLI   SMF30UON+1,K1       DOES I/O ACT SECTION EXIST   MSEIPO4
         BL    PUTMSG1F            NO - GOTO NEXT SEGMENT       MSEIPO4
         LR    R04,R09             GET RECORD ADDRESS           MSEIPO4
         A     R04,SMF30UOF        POINT TO ID SEGMENT          MSEIPO4
         USING SMF30URA,R04                                     MSEIPO4
         L     R01,SMF30TEP        GET TOTAL NUMBER OF EXCPS    MSEIPO4
         BAL   R14,PCOUNT          CALL CONVERT ROUTINE
         MVC   EXCP,DWORD+L'DWORD-L'EXCP MOVE TO OUTPUT LINE
         TM    SMF30DCF,SMF30MFL   DEVICE CONNECT TIME CORRECT  IPOXA
         BO    NDEVCON             NO                           IPOXA
         SR    R02,R02             CLEAR R2                     OY24316
         SR    R03,R03             CLEAR R3                     OY24316
         L     R03,SMF30TCN        GET DEVICE CONNECT TIME      OY24316
* MULTIPLY DEVICE CONNECT TIME BY .128 TO GET MS                IPOXA
         SLDA  R02,7               MULTIPLY BY 128              OY24316
         D     R02,F1000           DIVIDE BY 1000               IPOXA
         LR    R01,R03             PUT QUOTIENT IN R1 (MS)      IPOXA
         DROP  R04                                              MSEIPO4
         BAL   R14,PCOUNT          CALL CONVERT ROUTINE         IPOXA
         MVC   CONN,DWORD+L'DWORD-L'CONN MOVE TO OUTPUT LINE    IPOXA
         B     PUTMSG1F                                         IPOXA
NDEVCON  DS    0H                                               IPOXA
         MVC   CONN+2(4),=C'****'     NO DEVICE CONNECT TIME    IPOXA
PUTMSG1F DS    0H                                               MSEIPO4
         BAL   R14,MSGRTN          PUT LINE OUT
         B     EXIT                BR TO EPILOGUE CODE
         SPACE 3                                                MSEIPO4
*                                                               MSEIPO4
*        HANDLE JOB TERMINATION CONDITIONS                      MSEIPO4
*                                                               MSEIPO4
JOBTERM  DS    0H                  ENTRY ON JOB TERMINATION
         MVC   WTO1TXT,LINE4       SET UP OUTPUT LINE
         MVC   WTO1TXT+LINE4J(L'LINE4J),JMRJOB MOVE IN JOB NAME
         L     R01,PARMPROG        LOAD ADDR OF PROGRAMMER NAME
         MVC   WTO1TXT+LINE4N(L'LINE4N),K0(R01) MOVE IN PROG NAME
         SLR   R00,R00             ZERO REG
         LR    R01,R00             ZERO REG 1
         L     R02,PARMJOBC        LOAD JOB TCB CPU TIME ADDR
         ICM   R01,K7,K0(R02)      LOAD JOB TCB CPU TIME
         BAL   R14,PCLOCK          CONVERT TIME FOR OUTPUT
         MVC   WTO1TXT+LINE4C(L'LINE4C),DWORD+L'DWORD-L'LINE4C-K1
*                                                               MSEIPO4
* GET INFORMATION FROM ID SEGMENT                               MSEIPO4
*                                                               MSEIPO4
         CLI   SMF30ION+1,K1       DOES ID SEGMENT EXIST        MSEIPO4
         BL    PUTMSG2             NO - GOTO NEXT SEGMENT       MSEIPO4
         LR    R04,R09             GET RECORD ADDRESS           MSEIPO4
         A     R04,SMF30IOF        POINT TO ID SEGMENT          MSEIPO4
         USING SMF30ID,R04                                      MSEIPO4
         TIME  BIN                 GET TIME IN HUNDREDS/SEC     MSEIPO4
         LR    R01,R00             GET JOB TERM TIME            MSEIPO4
         ICM   R00,15,SMF30SIT     GET JOB INIT TIME            MSEIPO4
         DROP  R04,R09                                          MSEIPO4
         BAL   R14,PCLOCK          CONVERT TIME FOR OUTPUT
         MVC   WTO1TXT+LINE4E(L'LINE4E),DWORD+L'DWORD-L'LINE4E-K2
         BAL   R14,MSGRTN          PRINT LINE
PUTMSG2  DS    0H                                               MSEIPO4
*   FIND BULLETIN
         LA    R08,BLDLWORK        LOAD ADDR OF BLDL LIST
         USING BLDL,R08            SET UP ADDR. TO BLDL PARM LIST
         LA    R01,K1              LOAD A 1
         STH   R01,BLDLFF          STORE IN BLDL LIST
         LA    R01,BLDLELEN        LOAD LENGTH OF BLDL ENTRY LEN
         STH   R01,BLDLLL          STORE ENTRY LENGTH
         MVC   BLDLNAME,=CL8'BULLETIN' LOAD PROGRAM NAME
         LR    R00,R08             LOAD REG 0 WITH BLDL
         BLDL  0,(0)               ISSUE BLDL FOR MODULE
         LTR   R15,R15             WAS IT THERE?
         BNZ   EXIT                NO, BR TO EXIT EPILOGUE
         CLI   BLDLZ,K2            WAS IT OUT OF LINKLIST
         BNL   EXIT                NO, BR TO EXIT PROLOGUE
         LA    R02,BLDLNAME        GET BLDL ENTRY ADDRESS
         MVC   LINKE,LINKL         MOVE IN LINK LIST FORM
         LINK  DE=(2),SF=(E,LINKE) LINK TO BULLETIN ROUTINE
         DROP  R08                 DROP BLDL DSECT
         SPACE 3
EXIT     DS    0H                  EXIT PROLOGUE
         ESTAE 0                   CANCEL ESTAE EXIT
RTRYRTN2 DS    0H                  ESTAE RETRY ROUTINE WITH SDWA
*                                  JUST FREE STORAGE AND EXIT
         LR    R01,R13             GET FREEMAIN ADDRESS
         L     R13,SAVEBK          LOAD OLD REG 13
         FREEMAIN RU,LV=LDATA,A=(1),SP=SUBPOOL FREE DATA DSECT STORAGE
QUICKOUT DS 0H                     RETURN TO CALLER
         LM    14,12,12(13)        RESTORE REGISTERS            IPOXA
         LA    15,0                SET RETURN CODE              IPOXA
         BSM   0,14                RETURN TO CALLER IN ITS MODE IPOXA
         EJECT
MSGRTN   DS    0H                  MESSAGE(WTO) ROUTINE
         STM   R14,R01,SAVEAR2     SAVE A FEW REGISTERS
         LA    R01,L'WTO1TXT+K4    GET LENGTH FOR WTO
         STH   R01,WTO1LEN         STORE IN WTO PARM LIST
         MVC   WTO1MCS,MCSFLAG     MOVE IN MCSFLAG
         MVC   WTO1DESC,DESC       MOVE IN DESCRIPTOR CODES
         MVC   WTO1ROUT,ROUT       MOVE IN ROUTE CODES
         MVI   WTO1TXT,C'-'        MOVE IN MESSAGE PREFIX
         WTO   MF=(E,WTO1)         ISSUE WTO
         LM    R14,R01,SAVEAR2     RESTORE REGISTERS
         BR    R14                 RETURN TO CALLER
***********************************************************************
*  COUNT CONVERSION ROUTINE: CONVERTS BINARY TO CHARACTER OUTPUT      *
*        INPUT   REG 1 HAS COUNT TO BE CONVERTED                      *
*        OUTPUT  DWORD COUNTAINS CHARACTER OUTPUT FIELD               *
***********************************************************************
PCOUNT   SAVE  (14,12)             SAVE CALLER'S REGISTERS
         CVD   R01,DWORD           CONVERT COUNT TO DECIMAL
         MVC   EDWORK2,EDMASK2     MOVE IN EDIT MASK
         ED    EDWORK2,DWORD+K2    CONVERT TO CHARACTER
         CP    DWORD,P99999        IS COUNT>99999?
         BNH   NOFLOAT             NO, BR PAST FLOAT CODE
         MVC   DWORD(L'DWORD-K1),EDWORK2+K2 SHIFT IT RIGHT 3 DEC DIGTS
         MVI   DWORD+L'DWORD-K1,CK MOVE A 'K' FOR THOUSANDS