         MACRO
&NAME    DATE  &TO,&FORMAT='YYDDD',&PREFORM=NO,&FROM='S'
         GBLC  &GSS(5)
         LCLA  &A(6),&A1,&A2,&A3,&A4,&A5,&A6
         LCLB  &B1,&B2
         LCLC  &GNAME,&C1,&C2,&C3,&C4
.*
.*
.*       PDSDOC *MACRO TO REFORMAT DATE TO DDMMMYY (GUIDE UK M56005AS)* DATE
.*
.*
.*  THE DATE MACRO-INSTRUCTION ENABLES THE PROGRAMMER TO EDIT A PACKED
.* DECIMAL DATE IN THE FORM 'YYDDD+' TO HIS OWN SPECIFICATIONS.
.*
.*  THE PARAMETERS ARE GIVEN AS FOLLOWS  :
.*
.*  TO         THE ADDRESS OF THE FIRST BYTE OF THE AREA THAT IS TO
.*             CONTAIN THE EDITED DATE.
.*
.*  FORMAT     SPECIFIES A CHARACTER STRING WHICH IS SCANNED BY THE
.*             MACRO-INSTRUCTION FOR THE FOLLOWING IDENTIFIERS WHICH
.*             ARE REPLACED AS SHEWN  :
.*
.*             YYDDD               YEAR NUMBER AND DAY NUMBER.
.*             MMM                 MONTH IN CHARACTER FORM (JAN-DEC).
.*             DDD                 DAY NUMBER.
.*             YY                  YEAR NUMBER.
.*             MM                  MONTH NUMBER (01=JAN  12=DEC)
.*             DD                  DAY OF THE MONTH.
.*
.*             IF THIS PARAMETER IS OMITTED 'YYDDD' IS ASSUMED.
.*       THE REMAINDER OF THE LIST IS TREATED AS SPECIFIED IN THE
.* 'PREFORM' PARAMETER. NOTE THAT THE 'FORMAT' PARAMETER MUST ALWAYS
.* BE ENCLOSED WITHIN QUOTES.
.*
.*  PREFORM    SPECIFIES THE TREATMENT OF THE PARTS OF THE FORMAT LIST
.*             THAT ARE NOT IDENTIFIERS.
.*             'PREFORM=NO' SPECIFIES THAT NON-IDENTIFIER PARTS OF THE
.*             FORMAT LIST ARE TO BE STORED IN THE TO-AREA AS LITERALS.
.*             'PREFORM=YES' SPECIFIES THAT NON-IDENTIFIER PARTS OF THE
.*             FORMAT LIST ARE TO BE IGNORED.
.*             IF THIS PARAMETER IS OMITTED 'NO' IS ASSUMED.
.*
.*  FROM       SPECIFIES THE ADDRESS OF A 3 BYTE PACKED DECIMAL FIELD
.*             CONTAINING THE DATE THAT IS TO BE EDITED OR 'S' WHICH
.*             SPECIFIES THAT THE CURRENT MACHINE DATE IS TO BE USED.
.*             IF THIS PARAMETER IS OMITTED 'S' IS ASSUMED.
.*
.*
&NAME    DS    0H                  FORCE ALIGNMENT.
&GNAME   SETC  'IHB'.'&SYSNDX'
         AIF   ('&TO' EQ '').E1
         TSGINNRA  &TO
         AIF   ('&GSS(5)' EQ '').C1
&C1      SETC  '('
&C2      SETC  ')'
&C3      SETC  ','
.C1      ANOP
&A(1)    SETA  0
&A(2)    SETA  0                   MMM POINTER
&A(3)    SETA  0                   DDD POINTER
&A(4)    SETA  0                   YY POINTER.
&A(5)    SETA  0                   MM POINTER.
&A(6)    SETA  0                   DD POINTER.
&A1      SETA  2                   START OF FIELD.
&A2      SETA  2                   START OF CHARACTER FIELD.
&A3      SETA  0                   LITERAL COUNT.
&A4      SETA  K'&FORMAT-1         END COUNT INDICATOR.
.C2      AIF   (&A1+1 GT &A4).C3   NO SPACE FOR YY/MM/DD.
         AIF   (&A1+2 GT &A4).C4   NO SPACE FOR MMM/DDD.
         AIF   (&A1+4 GT &A4).C5   NO SPACE FOR YYDDD.
&A5      SETA  1                   FIELD TYPE INDICATOR.
&A6      SETA  5                   SET COUNT FOR INCREMENT.
         AIF   ('&FORMAT'(&A1,5) EQ 'YYDDD').C6
.C5      ANOP
&A5      SETA  2                   FIELD TYPE INDICATOR.
&A6      SETA  3                   SET COUNT FOR INCREMENT.
         AIF   ('&FORMAT'(&A1,3) EQ 'MMM').C6
&A5      SETA  3                   FIELD TYPE INDICATOR.
         AIF   ('&FORMAT'(&A1,3) EQ 'DDD').C6
.C4      ANOP
&A5      SETA  4                   FIELD TYPE INDICATOR.
&A6      SETA  2                   SET COUNT FOR INCREMENT,
.C7      AIF   ('&FORMAT'(&A1,2) EQ 'YYMMDD'((&A5-4)*2+1,2)).C6
&A5      SETA  &A5+1               INCREMENT FIELD TYPE INDICATOR.
         AIF   (&A5 LT 7).C7       LOOP UNTIL FOUND OR EXHAUSTED.
.C8      ANOP
&A1      SETA  &A1+1               INCREMENT FIELD COUNT.
         AGO .C2
.C6      AIF   (&A(&A5) NE 0).C8   IS ALREADY FOUND.
&A(&A5)  SETA  &A1-1               SET OFFSET ADDRESS.
.C13     ANOP
&A5      SETA  &A1-&A2             LENGTH OF REQUIRED LITERAL.
&A1      SETA  &A1+&A6             START OF NEXT AREA.
&A6      SETA  &A2-2               OFFSET IN TARGET AREA.
         AIF   (&A5 EQ 0 OR '&PREFORM' EQ 'YES').C9
         AIF   (&A5 EQ 1).C10      MVI REQUIRED.
&B2      SETB  1                   LITERALS PRESENT.
         AIF   (&B1).C11           SECOND ENTRY.
         MVC   &GSS(1)&GSS(2)&GSS(3)+&A6.(&A5&GSS(4)&GSS(5)),&GNAME.A+&*
               A3                  MOVE LITERAL.
&A3      SETA  &A3+&A5             UPDATE LITERAL COUNT.
.C9      AIF   (&A1 GT &A4).CX     END OF SCAN.
&A2      SETA  &A1                 RESTORE START OF CHARACTER FIELD.
         AGO   .C2
.C10     AIF   (&B1).C9
&C4      SETC  '&FORMAT'(&A2,1)
         MVI   &GSS(1)&GSS(2)&GSS(3)+&A6&C1&GSS(5)&C2,C'&C4' LITERAL
         AGO   .C9
.C11     AIF   (&A3 NE 0).C12      NOT FIRST TIME.
&GNAME.A DS    0C                  ORIGIN OF LITERALS.
.C12     AIF   (&A5 LE 8).C14
&C4      SETC  '&FORMAT'(&A2,8)
         DC    CL8'&C4'
&A2      SETA  &A2+8
&A5      SETA  &A5-8
         AGO   .C12
.C14     ANOP
&C4      SETC  '&FORMAT'(&A2,&A5)
         DC    CL&A5'&C4'
&A3      SETA  1                   INDICATE NOT FIRST.
         AGO   .C9
.C3      ANOP
&A1      SETA  &A4                 SET END INDICATOR.
         AGO   .C13
.CX      AIF   (&B1).B1            IF SECOND ENTRY GO TO FLDS.
.*
.*       END OF FORMAT SCAN - NOW TO GENERATE INSTRUCTIONS.
.*
         AIF   (&A(1)+&A(2)+&A(3)+&A(4)+&A(5)+&A(6) EQ 0).AX
         AIF   ('&FROM' NE '''S''').A1   NOT CVTDATA.
         L     1,16(0,0)           SET GR1 -> CVT.
&A1      SETA  57                  OFFSET WITHIN CVT.
         AGO   .A2
.A1      IHBINNRA  &FROM           SET GR1 -> DATE FIELD.
&A1      SETA  0                   OFFSET FIELD.
.A2      AIF   (&A(1) EQ 0).A3     YYDDD NOT REQUIRED.
&A2      SETA  &A(1)-1             OFFSET OF YYDDD FIELD.
         UNPK  &GSS(1)&GSS(2)&GSS(3)+&A2.(5&GSS(4)&GSS(5)),&A1.(3,1)
&A2      SETA  &A2+4               SET OFFSET FOR OR IMMEDIATE.
         OI    &GSS(1)&GSS(2)&GSS(3)+&A2&C1&GSS(5)&C2,X'F0' REMOVE ZONE
         AIF   (&A(4) EQ 0).A4     YY NOT REQUIRED.
&A2      SETA  &A(4)-1             OFFSET OF YY ENTRY.
&A3      SETA  &A(1)-1             OFFSET OF YYDDD ENTRY.
         MVC   &GSS(1)&GSS(2)&GSS(3)+&A2.(2&GSS(4)&GSS(5)),&GSS(1)&GSS(*
               2)&GSS(3)+&A3&C1&GSS(5)&C2  SET YY.
.A4      AIF   (&A(3) EQ 0).A5     DDD NOT REQUIRED.
&A2      SETA  &A(3)-1             OFFSET OF DDD.
&A3      SETA  &A(1)+1             OFFSET OF DDD IN YYDDD ENTRY.
         MVC   &GSS(1)&GSS(2)&GSS(3)+&A2.(3&GSS(4)&GSS(5)),&GSS(1)&GSS(*
               2)&GSS(3)+&A3&C1&GSS(5)&C2   SET DDD.
.A5      AIF   (&A(2)+&A(5)+&A(6) EQ 0).AX
.A3      AIF   (NOT(&A(4) NE 0 AND &A(1) EQ 0) AND &A(2)+&A(5)+&A(6) EQ*
                0).A6
         MVO   &GNAME.B+6(2),&A1.(1,1) MOVE YEAR NO. TO WORK AREA.
         AIF   (NOT(&A(4) NE 0 AND &A(1) EQ 0)).A7
         OI    &GNAME.B+7,X'0F'    REMOVE ZONE.
&A2      SETA  &A(4)-1             OFFSET OF YY ENTRY.
         UNPK  &GSS(1)&GSS(2)&GSS(3)+&A2.(2&GSS(4)&GSS(5)),&GNAME.B+6(2*
               )                   SET YY.
.A7      AIF   (&A(2)+&A(5)+&A(6) EQ 0).A6
         CVB   0,&GNAME.B          SET GR0 = YY.
.A6      AIF   (NOT(&A(3) NE 0 AND &A(1) EQ 0) AND &A(2)+&A(5)+&A(6) EQ*
                0).AX
&A2      SETA  &A(3)-1
&A1      SETA  &A1+1
         AIF   (&A(2)+&A(5)+&A(6) NE 0).A8
         UNPK  &GSS(1)&GSS(2)&GSS(3)+&A2.(3&GSS(4)&GSS(5)),&A1.(2,1)
&A2      SETA  &A2+2
         OI    &GSS(1)&GSS(2)&GSS(3)+&A2&C1&GSS(5)&C2,X'F0' REMOVE ZONE
         AGO   .AX
.A8      MVC   &GNAME.B+6(2),&A1.(1)   MOVE DDD TO WORK AREA.
         AIF   (NOT(&A(3) NE 0 AND &A(1) EQ 0)).A9
         OI    &GNAME.B+7,X'0F'    REMOVE ZONE.
         UNPK  &GSS(1)&GSS(2)&GSS(3)+&A2.(3&GSS(4)&GSS(5)),&GNAME.B+6(2*
               )                   STORE DDD.
.A9      AIF   (&A(2)+&A(5)+&A(6) EQ 0).AX
         LR    1,0                 SET GR1 = YEAR NUMBER.
         CVB   0,&GNAME.B          SET GR0 = DAY NUMBER.
         MVI   &GNAME.C+10,28      SET FEBRUARY = 28 DAYS.
         EX    1,&GNAME.D          TEST FOR LEAP YEAR.
         BNZ   *+8                 IF NOT THEN GO TO FIND DD/MM/MMM.
         MVI   &GNAME.C+10,29      SET FEBRUARY = 29 DAYS.
         LA    1,&GNAME.C+11       SET GR1 -> JANUARY ENTRY.
         SR    15,15               SET GR15 = 0.
         IC    15,0(1,0)           SET GR15 = DAYS / MONTH.
         SR    0,15                DECREMENT DAY NUMBER.
         BNP   *+8                 IF NOT PLUS THEN MONTH FOUND.
         BCT   1,*-10              LOOP UNTIL FOUND.
         AIF   (&A(6) EQ 0).A10    DD NOT REQUIRED.
         AR    0,15                RESTORE DD.
         CVD   0,&GNAME.B          STORE DD IN WORK AREA.
         OI    &GNAME.B+7,X'0F'    REMOVE ZONE.
&A2      SETA  &A(6)-1             OFFSET OF DD.
         UNPK  &GSS(1)&GSS(2)&GSS(3)+&A2.(2&GSS(4)&GSS(5)),&GNAME.B+6(2*
               )                   SET DD.
         AIF   (&A(2)+&A(5) EQ 0).AX
.A10     LA    0,&GNAME.C+12       SET GR0 FOR SUBTRACT.
         SR    0,1                 SET GR0 = MONTH NUMBER.
         AIF   (&A(5) EQ 0).A11    MM NOT REQUIRED.
         CVD   0,&GNAME.B          MOVE MM TO WORK AREA.
         OI    &GNAME.B+7,X'0F'    REMOVE ZONE.
&A2      SETA  &A(5)-1             OFFSET OF MM ENTRY.
         UNPK  &GSS(1)&GSS(2)&GSS(3)+&A2.(2&GSS(4)&GSS(5)),&GNAME.B+6(2*
               )                   SET MM.
         AIF   (&A(2) EQ 0).AX     MMM NOT REQUIRED.
.A11     LR    1,0                 SET GR1 = MM.
         AR    1,0                 SET GR1 = MM * I.
         AR    1,0                 SET GR1 = MM * 3.
         LA    1,&GNAME.E-3(1)     SET GR1 -> REQUIRED CHAR FLD.
&A2      SETA  &A(2)-1             OFFSET OF MMM ENTRY.
         MVC   &GSS(1)&GSS(2)&GSS(3)+&A2.(3&GSS(4)&GSS(5)),0(1) SET MMM
.AX AIF (NOT(&B2 OR &A(2)+&A(5)+&A(6) NE 0 OR(&A(1) EQ 0 AND &A(4) NE 0*
               ))).END
         B     &GNAME.F
.*
.*       END OF INSTRUCTION GENERATION-NOW GENERATE CONSTANTS.
.*
  AIF (NOT(&A(2)+&A(5)+&A(6) NE 0 OR (&A(1) EQ 0 AND &A(4) NE 0))).B2
         DS    0D
         AIF   (&A(2)+&A(5)+&A(6) EQ 0).B2
&GNAME.B DC    PL8'0'
&GNAME.D TM    *+4,0               MODEL INSTRUCTION.
         DC    AL1(3)
&GNAME.C DC    AL1(31,30,31,30,31,31,30,31,30,31,28,31)
         AIF   (&A(2) EQ 0).B2
&GNAME.E DC    C'JANFEBMARAPRMAYJUNJULAUGSEPOCTNOVDEC'
.B2      AIF   (&B2 EQ 0).B1
&B1      SETB  1
         AGO   .C1
.B1      ANOP
&GNAME.F DS    0H
.END     MEXIT
.E1      MNOTE 12,'***  IHB004  REQUIRED OPERAND(S) NOT SPECIFIED'
         MEND
