./ ADD NAME=TMAPCOMM 0101-95016-95016-1459-00208-00208-00000-JSYSC
*---------------------------------------------------------------------*
*                                                                     *
*          COMMON AREA MAPPING MACRO                                  *
*                                                                     *
*     This macro will generate either the 'common' module CSECT or    *
*     a DSECT to map the 'common' module.  'Common' is used for       *
*     constants and work areas that are required by several modules   *
*     allowing some elimination of duplicated data and to allow       *
*     inter-module communication.                                     *
*                                                                     *
*     The trace table code is also incorporated into the 'TMAPCOMM'.  *
*                                                                     *
*---------------------------------------------------------------------*
         MACRO
&NAME    TMAPCOMM &TYPE=
         AIF   (T'&NAME EQ 'O').NONAME
         AIF   ('&TYPE' EQ 'CSECT').CSECT
         AIF   ('&TYPE' EQ 'DSECT').DSECT
         MNOTE 12,'INVALID TYPE'
         MEXIT
.CSECT   ANOP
&NAME    CSECT
         AGO   .NODSECT
.DSECT   ANOP
&NAME    DSECT
.NODSECT ANOP
*---------------------------------------------------------------------*
*                                                                     *
*          ADDRESS CONSTANTS                                          *
*                                                                     *
*---------------------------------------------------------------------*
         DC    CL8'TMAPCOMM'
ACOMM    DC    A(TMAPCOMM)         COMMON MODULE
         DC    CL8'TAPEDCB'
ADCB     DC    V(TMAPDCB)          DCB INFO CONVERTER
         DC    CL8'TAPEEXCP'
ATAPEIO  DC    V(TAPEEXCP)         TAPE I/O MODULE ADDRESS
         DC    CL8'TMAPMAIN'
AMAIN    DC    V(TMAPMAIN)         MAINLINE MODULE ADDRESS
         DC    CL8'TMAPPARM'
APARM    DC    V(TMAPPARM)         PARAMETER CONVERTER
         DC    CL8'TMAPPRT'
APRT     DC    V(TMAPPRT)          PRINT MODULE ADDRESS
*---------------------------------------------------------------------*
*                                                                     *
*          File processor table                                       *
*                                                                     *
*     On the first record following a tapemark, the main line         *
*     program calls each module in the following list until one       *
*     of them signals that it 'recognizes' the data.  The search      *
*     stops when the first module signals it 'knows' the data.        *
*     If a file may be detected by more than one file processor       *
*     like SMP/E MCS files, the order of search will determine        *
*     the file type.                                                  *
*                                                                     *
*---------------------------------------------------------------------*
PROCTBLE DS    0A
         TMAPPROC TMAPCBT            CBT COMPRESSED DATASETS
         TMAPPROC TMAPCOPY           IEBCOPY
         TMAPPROC TMAPDSS            DF/DSS BACK-UPS
         TMAPPROC TMAPFDR            FDR BACK-UPS
         TMAPPROC TMAPLABL           STANDARD LABELS
         TMAPPROC TMAPMOVE           IEHMOVE
         TMAPPROC TMAPMCS            SMP/E MCS
AUPDT    TMAPPROC TMAPUPDT           IEBUPDTE
         DC    X'FF'                 END OF LIST
*---------------------------------------------------------------------*
*                                                                     *
*          CURRENT RECORD ADDRESS AND LENGTH                          *
*                                                                     *
*---------------------------------------------------------------------*
COMMRECA DC    A(0)                CURRENT RECORD'S ADDRESS
COMMRECL DC    AL2(0)              CURRENT RECORD'S LENGTH
*---------------------------------------------------------------------*
*                                                                     *
*          TRACE CONTROL                                              *
*                                                                     *
*---------------------------------------------------------------------*
         DS    0A
         DC    CL4'1ST'            FIRST TRACE ENTRY
TR1ST    DC    A(0)
         DC    CL4'LAST'           LAST TRACE ENTRY
TRLAST   DC    A(0)
         DC    CL4'CURR'           CURRENT TRACE ENTRY
TRCURR   DC    A(0)
TRADDR   DC    A(0)                TRACE TABLE STORAGE ADDRESS
TRR14    DC    A(0)                REGISTER 14 SAVE AREA
TRDATA1  DC    CL8' '              TRACE DATA ITEM 1
TRDATA2  DC    CL8' '              TRACE DATA ITEM 2
TRSIZE   DC    A(1000*TRENTRYL)    TRACE TABLE SIZE
*---------------------------------------------------------------------*
*                                                                     *
*          GLOBAL DATA                                                *
*                                                                     *
*---------------------------------------------------------------------*
COMMCFPE DC    A(0)                CURRENT FILE PROCESSOR TABLE ENTRY
COMMPARM DC    A(0)                ADDRESS OF EXEC STATEMENT PARM DATA
COMMMEML DC    H'0'                LENGTH OF MEMBER ON PRINT LINE
COMMMEM# DC    H'0'                NUMBER OF MEMBERS PER LINE
COMMFLAG DC    X'00'               GLOBAL CONTROL FLAGS
$COMMINQ EQU   X'80'               .. 'INQUIRY' CALLS IN PROGRESS
$COMM1ST EQU   X'40'               .. FIRST RECORD OF FILE
$COMMLST EQU   X'20'               .. 'CLEAN-UP' IN PROGRESS
$COMMSUB EQU   X'10'               .. 'SUB-FUNCTION' CALL
$COMMNOM EQU   X'08'               .. NO PDS MEMBERS
$ABORT   EQU   X'04'               .. SERIOUS ERROR, ABORT
$COMMFUL EQU   X'02'               .. MAP FULL TAPE
$ABEND   EQU   X'01'               .. ABEND ON EXIT
COMMDEVT DC    C' '                TAPE DEVICE TYPE
COMMSUBH DC    CL120' '            SUB HEADING
*---------------------------------------------------------------------*
*                                                                     *
*                                                                     *
*                                                                     *
*---------------------------------------------------------------------*
COMMMAXL DC    PL3'60'             MAXIMUM LINES PER PAGE
         EJECT
*---------------------------------------------------------------------*
*                                                                     *
*          ADD TRACE ENTRY                                            *
*                                                                     *
*  During program initialization, TMAPMAIN acquires storage for the   *
*  trace table and sets COMM1ST, COMMLAST, and COMMCURR.  TMAPMAIN    *
*  also sets R11 to the address of TMAPCOMM and all other modules     *
*  depend on this remaining unchanged.  Any module except this        *
*  module may call the trace routine.  Macro TMAPTR generates the     *
*  calling sequence.  R14 is the only register altered by the trace   *
*  macro.                                                             *
*                                                                     *
*  The trace table is a "wrap-around" table.  COMM1ST is the first    *
*  entry's address, COMMLAST is the last entry's address, and         *
*  COMMCURR is the address of the last entry added to the table.      *
*  When a trace entry is added to the table, the calling module's     *
*  name, an 8-byte ID, and up to 2 8-byte fields are captured.        *
*                                                                     *
*                                                                     *
*                                                                     *
*      This code depends on:                                          *
*           R11  'TMAPCOMM' address                                   *
*           R12  current module's base address                        *
*                and the module's name must be at 10 bytes (0A hex)   *
*                into the module                                      *
*           R14  trace id's address and R14 + 8 will be the return    *
*                address                                              *
*                                                                     *
*---------------------------------------------------------------------*
TRACE000 DS    0H
         USING &NAME,R11           DEFINE BASE
         USING TRENTRY,R1          DEFINE BASE
         STM   R0,R15,TRCESAVE     SAVE ALL REGISTERS
         L     R1,TRCURR           CURRENT TRACE ENTRY
         OC    0(TRENTRYL,R1),0(R1)    EMPTY ENTRY?
         BZ    TRACE010            YES.. USE THIS ENTRY
         LA    R1,TRENTRYL(R1)     NEXT TRACE ENTRY
TRACE010 DS    0H
         C     R1,TRLAST           BEYOND END OF TABLE?
         BL    *+4+4               NO
         L     R1,TR1ST            'WRAP' TRACE TABLE
         ST    R1,TRCURR           SAVE CURRENT TRACE ENTRY ADDRESS
         MVC   TREMOD,10(R12)      COPY MODULE NAME
         MVC   TREID,0(R14)        COPY TRACE ID
         MVC   TREDATA1,TRDATA1    COPY TRACE DATA 1
         MVC   TREDATA2,TRDATA2    COPY TRACE DATA 2
         XC    TRDATA1,TRDATA1     CLEAR TRACE DATA
         XC    TRDATA2,TRDATA2     CLEAR TRACE DATA
         LM    R0,R15,TRCESAVE     RESTORE ALL REGISTERS
         B     8(R14)              RETURN
TRCESAVE DS    16F                 REGISTER SAVE AREA
         SPACE 2
*---------------------------------------------------------------------*
*                                                                     *
*          TRACE TABLE ENTRY                                          *
*                                                                     *
*---------------------------------------------------------------------*
TRENTRY  DSECT
TREMOD   DS    CL8                 MODULE NAME
TREID    DS    CL8                 TRACE ID
TREDATA1 DS    CL8                 TRACE DATA 1
TREDATA2 DS    CL8                 TRACE DATA 2
TRENTRYL EQU   *-TRENTRY           ENTRY LENGTH
         SPACE 2
*---------------------------------------------------------------------*
*                                                                     *
*          File processor table entries                               *
*                                                                     *
*---------------------------------------------------------------------*
PROCDSCT DSECT
PROCNAME DS    CL8                 MODULE'S NAME
PROCEPA  DS    AL4                 MODULE'S ENTRY POINT
PROCL    EQU   *-PROCDSCT          LENGTH OF EACH ENTRY
         SPACE 2
*---------------------------------------------------------------------*
*                                                                     *
*          ABEND REASON CODES                                         *
*                                                                     *
*---------------------------------------------------------------------*
ABEND001 EQU   1                   ABEND DUE TO STATUS FROM TAPEEXCP
ABEND002 EQU   2                   UNKNOWN STATUS CODE FROM TAPEEXCP
ABEND003 EQU   3                   ERROR DURING TAPE I/O CLOSE
ABEND004 EQU   4                   UNKNOWN COMMAND PASSED TO TMAPPRT
ABEND005 EQU   5                   UNKNOWN VTOC RECORD TYPE IN TMAPDSS
ABEND006 EQU   6                   LENGTH NEGATIVE IN 'NEXTTRAK' (DSS)
         MEXIT
.NONAME  ANOP
         MNOTE 12,'NAME IS REQUIRE WHEN TYPE=DSECT'
.MEXIT   ANOP
         MEXIT
         MEND
./ ADD NAME=TAPEUSRO 0100-95016-95016-1241-00982-00982-00000-JSYSC
          TITLE 'TAPEUSRO - EXCP LEVEL TAPE I/O SUBROUTINE WITH USER OP+
               N'
*---------------------------------------------------------------------*
*                                                                     *
*  Module name: TAPEUSRO                                              *
*                                                                     *
*  Function:                                                          *
*  This program is a subroutine that performs tape I/O at the EXCP    *
*  level.  MVS "OPEN" is bypassed, therefore 1) this module must run  *
*  APF authorized, 2) there is no data set access RACF checking (you  *
*  can read any data set without having RACF access to it), 3) the    *
*  tape my be labelled or non-labelled, 4) there are no SMF data set  *
*  activity records made to log access to the tape's data sets.       *
*  Since no RACF access check is made to any of the tape's data sets  *
*  and no SMF records are produced, access to this program should be  *
*  restricted.                                                        *
*                                                                     *
*  The CSECT name will be TAPEEXCP.  This allows the link edit        *
*  and "VCON" references to always use the same module names.         *
*                                                                     *
*  This program supports only reads, no tape output is performed.     *
*  The program's parameter list is mapped by the TAPEBLOK macro.      *
*                                                                     *
*  The same TAPEBLOK should be used for all calls to TAPEUSRO.        *
*                                                                     *
*  Functions provided are:                                            *
*     OPEN   TCMD = $TCMDOPN                                          *
*     READ   TCMD = $TCMDRD                                           *
*     CLOSE  TCMD = $TCMDCLS                                          *
*                                                                     *
*   All functions require the "DDNAME" to be specified.  On an OPEN   *
*   call, the tape unit is verified as a being a supported device,    *
*   the I/O area for the tape is allocated, and a REWIND command is   *
*   issued to position the tape to load point. On a READ call, the    *
*   next physical block of the tape will be read and the I/O area     *
*   address and data length will be returned to the caller.  On a     *
*   CLOSE call, the I/O area will be freed.                           *
*                                                                     *
*   If a tapemark or the end of tape is reached, no data will be      *
*   returned.                                                         *
*                                                                     *
*   In the event of an I/O error, TAPEUSRO will try to issue a sense  *
*   command and return the sense info in TSENSE in the parameter      *
*   block.                                                            *
*                                                                     *
*   Multiple tapes may be OPEN at the same time, TAPEUSRO keeps track *
*   of the tapes by DDNAME.  You must specify the DDNAME on each call.*
*                                                                     *
*   This module has all its work areas in the TAPEBLOK data area, so  *
*   it is re-entrant.  MVS still does not allow I/O from above the    *
*   16-meg line, so the program is written as 24-bit.                 *
*                                                                     *
*                                                                     *
* ------------------------------------------------------------------- *
         EJECT
* ------------------------------------------------------------------- *
*                                                                     *
*                         TRACE MACRO                                 *
*                                                                     *
*        THE TRACE FUNCTION CAPTURES AN 8-BYTE 'ID' AND UP TO 3 8-    *
*        BYTE DATA ELEMENTS.                                          *
*                                                                     *
* ------------------------------------------------------------------- *
         MACRO
&NAME    TAPETR &ID=,                                                  +
               &DATA1=,&RDATA1=,                                       +
               &DATA2=,&RDATA2=,                                       +
               &DATA3=,&RDATA3=
         AIF   (T'&DATA1 NE 'O' AND T'&RDATA1 NE 'O').ERR0010
         AIF   (T'&DATA2 NE 'O' AND T'&RDATA2 NE 'O').ERR0020
         AIF   (T'&DATA3 NE 'O' AND T'&RDATA3 NE 'O').ERR0030
         AIF   (T'&ID EQ 'O').ERR0040
         AIF   ((T'&DATA3 EQ 'O') AND (T'&RDATA3 EQ 'O')).DATA010
         AIF   (T'&DATA1 EQ 'O' AND T'&RDATA1 EQ 'O').ERR0050
         AIF   (T'&DATA2 EQ 'O' AND T'&RDATA2 EQ 'O').ERR0050
         AIF   ('&SYSPARM' EQ 'NOTRACE').MEXIT
.DATA010 ANOP
         AIF   ((T'&DATA2 EQ 'O') AND (T'&RDATA2 EQ 'O')).DATA020
         AIF   (T'&DATA1 EQ 'O' AND T'&RDATA1 EQ 'O').ERR0060
.DATA020 ANOP
         AIF   (T'&DATA1 EQ 'O').DATA040
         AIF   ('&DATA1'(1,1) EQ '(').DATA030
         LA    R14,&DATA1         DATA ADDRESS
         MVC   TTRDATA1,0(R14)    MOVE DATA
         AGO   .DATA050
.DATA030 ANOP
         MVC   TTRDATA1,0&DATA1   MOVE DATA
         AGO   .DATA050
.DATA040 ANOP
         AIF   (T'&RDATA1 EQ 'O').DATA050
         STCM  &RDATA1,15,TTRDATA1
.DATA050 ANOP
         AIF   (T'&DATA2 EQ 'O').DATA070
         AIF   ('&DATA2'(1,1) EQ '(').DATA060
         LA    R14,&DATA2         DATA ADDRESS
         MVC   TTRDATA2,0(R14)    MOVE DATA
         AGO   .DATA080
.DATA060 ANOP
         MVC   TTRDATA2,0&DATA2   MOVE DATA
         AGO   .DATA080
.DATA070 ANOP
         AIF   (T'&RDATA2 EQ 'O').DATA080
         STCM  &RDATA2,15,TTRDATA2
.DATA080 ANOP
         AIF   (T'&DATA3 EQ 'O').DATA100
         AIF   ('&DATA3'(1,1) EQ '(').DATA090
         LA    R14,&DATA3         DATA ADDRESS
         MVC   TTRDATA3,0(R14)    MOVE DATA
         AGO   .DATA110
.DATA090 ANOP
         MVC   TTRDATA3,0&DATA3   MOVE DATA
         AGO   .DATA110
.DATA100 ANOP
         AIF   (T'&RDATA3 EQ 'O').DATA110
         STCM  &RDATA3,15,TTRDATA3
.DATA110 ANOP
         BAL   R14,TRACE000       ENTER TRACE ROUTINE
&NAME    DC    CL8'&ID'           TRACE ID
         MEXIT
.ERR0010 ANOP
         MNOTE 12,'DATA1 AND RDATA1 ARE MUTUALLY EXCLUSIVE'
         MEXIT
.ERR0020 ANOP
         MNOTE 12,'DATA2 AND RDATA2 ARE MUTUALLY EXCLUSIVE'
         MEXIT
.ERR0030 ANOP
         MNOTE 12,'DATA3 AND RDATA3 ARE MUTUALLY EXCLUSIVE'
         MEXIT
.ERR0040 ANOP
         MNOTE 12,'ID PARAMETER IS REQUIRED'
         MEXIT
.ERR0050 ANOP
         MNOTE 12,'DATA3/RDATA3 IS NOT VALID UNLESS BOTH DATA1/RDATA1 A+
               ND DATA2/RDATA2 ARE SPECIFIED'
         MEXIT
.ERR0060 ANOP
         MNOTE 12,'DATA2/RDATA2 IS NOT VALID UNLESS DATA1/RDATA1 IS SPE+
               CIFIED'
.MEXIT   ANOP
         MEXIT
         MEND
         EJECT
* ------------------------------------------------------------------- *
*                                                                     *
*                                                                     *
*                                                                     *
* ------------------------------------------------------------------- *
TAPEEXCP CSECT
TAPEEXCP AMODE 24
TAPEEXCP RMODE 24
         USING TAPEEXCP,R12
         USING PSA,R0                DEFINE PSA BASE
         USING CMDBLOK,R10           DEFINE PARAMETER BLOCK BASE
         USING IOBLK,R9              DEFINE BASE
         STM   R14,R12,12(R13)       SAVE REGS
         LR    R12,R15               SET BASE REG
         LR    R10,R1                COPY PARAMETER BLOCK ADDRESS
         LA    R1,TSAVE              OUR SAVE AREA ADDRESS
         ST    R13,TSAVE+4           SAVE SAVE AREA ADDRESS
         ST    R1,8(R13)             CHAIN OUR SAVE AREA TO CALLER'S
         LA    R13,TSAVE             SET SAVE AREA ADDRESS
         B     TAPE0000              SKIP EYECATCHER
         DC    CL8'TAPEUSRO'
         DC    C'&SYSDATE'
         DC    C'&SYSTIME'
TAPE0000 DS    0H
         TAPETR ID=ENTRY,            TRACE CALLS                       +
               DATA1=TDDNAME,        .. FOR DDNAME                     +
               DATA2=TCMD            .. COMMAND
         CLI   TCMD,$TCMDOPN         OPEN TAPE DCB?
         BE    OPEN0000              YES
         CLI   TCMD,$TCMDRD          READ A BLOCK?
         BE    READ0000              YES
         CLI   TCMD,$TCMDCLS         CLOSE DCB?
         BE    CLOSE000              YES
         MVI   TSTAT,$TSTATIC        INVALID COMMAND
         B     TAPE9900              EXIT
         EJECT
* ------------------------------------------------------------------- *
*                                                                     *
*             OPEN TAPE DCB                                           *
*                                                                     *
* ------------------------------------------------------------------- *
OPEN0000 DS    0H
         TAPETR ID=OPEN
         ICM   R9,15,TCHAIN          FIRST I/O BLOCK ON THE CHAIN
         BZ    OPEN0020              NO BLOCK ON CHAIN
OPEN0010 DS    0H
         CLC   IODDNAME,TDDNAME      I/O BLOCK ALREADY ON THE CHAIN?
         BE    OPEN0190              YES.. CANNOT ALLOW A DUPLICATE
         ICM   R9,15,IONEXT          NEXT BLOCK ON CHAIN
         BNZ   OPEN0010              PROCESS ALL OF THEM
* ------------------------------------------------------------------- *
*             DETERMINE ADDRESS SPACE TYPE                            *
* ------------------------------------------------------------------- *
OPEN0020 DS    0H
         L     R1,PSAANEW            OUR ASCB ADDRESS
         USING ASCB,R1               DEFINE BASE
         L     R15,ASCBJBNI          JOB NAME ADDRESS
         LA    R15,0(R15)            CLEAR HIGH BIT(S)
         LTR   R15,R15               JOB NAME PRESENT?
         BNZ   OPEN0030              YES
         L     R1,ASCBOUCB           OUR OUCB ADDRESS
         USING OUCB,R1               DEFINE BASE
         BAL   R14,AM31              SWITCH TO 31-BIT MODE
         TAPETR ID=OUCBYFL,                                            +
               RDATA1=R1,                                              +
               DATA2=OUCBYFL
         TM    OUCBYFL,OUCBSTT       IS THIS A STARTED TASK?
         BNO   OPEN0030              NO
         OI    TASTYPE,$TASSTC       ADDRESS SPACE IS AN STC
         TAPETR ID=ASIDSTC
OPEN0030 DS    0H
         BAL   R14,AM24              SWITCH TO 24-BIT MODE
* ------------------------------------------------------------------- *
*             LOCATE UCB FOR REQUESTED DEVICE TYPE                    *
* ------------------------------------------------------------------- *
         L     R1,CVTPTR             CVT'S ADDRESS
         USING CVT,R1                DEFINE BASE
         L     R3,CVTUCBA            FIRST UCB'S ADDRESS
         USING UCBOB,R3              DEFINE BASE
OPEN0040 DS    0H
         TM    UCBSTAT,UCBONLI       IS THIS DEVICE ONLINE?
         BNO   OPEN0070              NO
         TM    UCBSTAT,UCBALOC       IS IT ALREADY ALLOCATED?
         BO    OPEN0070              YES
         TM    UCBTBYT3,UCB3TAPE     IS DEVICE A TAPE UNIT?
         BNO   OPEN0070              NO
         CLI   UCBTBYT4,UCB3480      IS IT A 3480?
         BE    OPEN0060              YES
         CLI   TDEVT,$T3480          3480 WANTED?
         BE    OPEN0070              YES
         CLI   TDEVT,$T3420B         6250 BPI WANTED?
         BE    OPEN0050              YES
         TM    UCBTBYT1,UCBD1600     1600 BPI DRIVE?
         BO    OPEN0090              YES
         TM    UCBTBYT2,UCBDUDN1     800/1650 DRIVE?
         BO    OPEN0090              YES
         TM    UCBTBYT2,UCBDUDN2     1600/6250 DRIVE?
         BO    OPEN0090              YES
         B     OPEN0070              OTHERWISE LOOK FOR ANOTHER UNIT
OPEN0050 DS    0H
         TM    UCBTBYT1,UCBD6250     6250 BPI DRIVE?
         BO    OPEN0080              YES
         TM    UCBTBYT2,UCBDUDN2     1600/6250 DRIVE?
         BO    OPEN0080              YES
         B     OPEN0070              OTHERWISE LOOK FOR ANOTHER UNIT
OPEN0060 DS    0H
         CLI   TDEVT,$T3480          3480 WANTED?
         BNE   OPEN0070              NO
         MVI   TDENSITY,$DEN3480     SET FOR 3480 DENSITY
         B     OPEN0100
OPEN0070 DS    0H
         TAPETR ID=NEXTUCB,                                            +
               RDATA1=R3             .. INCLUDE CURRENT UCB'S ADDRESS
         ICM   R3,15,UCBNXUCB        NEXT UCB
         BNZ   OPEN0040              TEST THIS UNIT
         MVI   TSTAT,$TSTATNU        NO UNIT AVAILABLE
         B     TAPE9900              AND EXIT
OPEN0080 DS    0H
         MVI   TDENSITY,$DEN6250     SET FOR 6250 BPI DENSITY
         B     OPEN0100
OPEN0090 DS    0H
         MVI   TDENSITY,$DEN1600     SET FOR 1600 BPI DENSITY
         B     OPEN0100
* ------------------------------------------------------------------- *
*             UCB LOCATED                                             *
* ------------------------------------------------------------------- *
OPEN0100 DS    0H
         TAPETR ID=UCBLOC,           UCB HAS BEEN LOCATED              +
               RDATA1=R3             .. INCLUDE UCB'S ADDRESS
* ------------------------------------------------------------------- *
*             ALLOCATE THE UNIT                                       *
* ------------------------------------------------------------------- *
         LA    R2,T99RB              DAIR REQUEST BLOCK ADDRESS
         USING S99RB,R2              DEFINE BASE
         ST    R2,T99RBA             SET ADDRESS IN POINTER
         OI    T99RBA,X'80'          SET END OF LIST
         XC    T99RB(T99RBL),T99RB   CLEAR REQUEST BLOCK
         MVI   S99RBLN,T99RBL        SET LENGTH
         MVI   S99VERB,S99VRBAL      SET VERB (ALLOCATE)
         LA    R1,T99DDPA            FIRST TEXT UNIT POINTER
         ST    R1,S99TXTPP           SET TEXT POINTER ADDRESS
         LA    R1,T99DDP             DD PARAMETER'S ADDRESS
         ST    R1,T99DDPA            SET ADDRESS
         LA    R1,T99DNP             DSN PARAMETER'S ADDRESS
         ST    R1,T99DNPA            SET ADDRESS
         LA    R1,T99UTP             UNIT PARAMETER'S ADDRESS
         ST    R1,T99UTPA            SET ADDRESS
         LA    R1,T99STP             STATUS (DISP=NEW)
         ST    R1,T99STPA            SET ADDRESS
         LA    R1,T99DPP             DISPOSITION (DISP=KEEP)
         ST    R1,T99DPPA            SET ADDRESS
         LA    R1,T99DMP             DEFERRED MOUNT PARAMETER
         ST    R1,T99DMPA            SET ADDRESS
         OI    T99DMPA,X'80'         SET END OF LIST ADDRESS
         MVC   T99DDP(T99L),T99      INITIALIZE ALL PARAMETERS
         MVC   T99DD,TDDNAME         SET DDNAME
         MVC   T99DN,TDDNAME         SET DSN
         MVC   T99UT(3),UCBNAME      SET UNIT
         LA    R1,T99RBA             POINTER'S ADDRESS
         DYNALLOC                    ALLOCATE THE DRIVE
         STH   R15,T99RC             SET RETURN CODE
         LTR   R15,R15               ALLOCATED SUCCESSFULLY?
         BNZ   OPEN0200              NO
* ------------------------------------------------------------------- *
*             ACQUIRE I/O CONTROL BLOCK                               *
* ------------------------------------------------------------------- *
         GETMAIN R,LV=IOBLKL         ACQUIRE CONTROL BLOCK STORAGE
         LR    R9,R1                 COPY STORAGE ADDRESS
         LA    R14,TCHAIN            INITIALIZE 'CURRENT' POINTER
         ICM   R15,15,TCHAIN         FIRST BLOCK ON CHAIN
         BZ    OPEN0120              END OF CHAIN FOUND
OPEN0110 DS    0H
         LR    R14,R15               COPY CURRENT BLOCK'S ADDRESS
         ICM   R15,15,IONEXT-IOBLK(R15) NEXT ON CHAIN
         BNZ   OPEN0110              FIND END OF CHAIN
OPEN0120 DS    0H
         ST    R14,IOPREV            SET 'PREVIOUS' POINTER
         XC    IONEXT,IONEXT         ZERO 'NEXT' POINTER
         ST    R9,IONEXT-IOBLK(R14) 'NEXT' IN PREVIOUS BLOCK
         MVC   IODDNAME,TDDNAME      SET DD NAME
* ------------------------------------------------------------------- *
*             ACQUIRE I/O AREA                                        *
* ------------------------------------------------------------------- *
         GETMAIN R,LV=$MAXLEN        ACQUIRE I/O AREA
         ST    R1,IOAREA             SAVE I/O AREA ADDRESS
         TAPETR ID=NEWIOBLK,                                           +
               RDATA1=R9,            .. I/O BLOCK'S ADDRESS            +
               RDATA2=R1             .. I/O AREA'S ADDRESS
* ------------------------------------------------------------------- *
*             INITIALIZE CCW'S                                        *
* ------------------------------------------------------------------- *
         MVC   IOREAD,READCCW        INITIALIZE READ CCW
         MVC   IOREW,REWCCW          INITIALIZE REW CCW
         MVC   IOSENSE,SENSECCW      INITIALIZE SENSE CCW
         L     R1,IOAREA             I/O AREA ADDRESS
         STCM  R1,7,IOREAD+1         INITIALIZE I/O AREA ADDRESS
         STCM  R1,7,IOREW+1
         LA    R1,TSENSE             SENSE DATA ADDRESS
         STCM  R1,7,IOSENSE+1        INITIALIZE SENSE DATA ADDRESS
* ------------------------------------------------------------------- *
*             INITIALIZE SENSE INFO                                   *
* ------------------------------------------------------------------- *
         XC    TSENSE,TSENSE         INITIALIZE SENSE DATA