         MACRO
&NAME    GOSUB &ROUTINE,&R
.*
.*       PDSDOC *MACRO TO EXECUTE SUB-ROUTINE.........................* GOSUB
.*
         LCLC  &REG
         AIF   ('&ROUTINE' EQ '').NOADDR
&REG     SETC  '&R'
         AIF   ('&R' NE '').GOTREG
&REG     SETC  'R4'
.GOTREG  ANOP
&NAME    BAL   &REG,&ROUTINE       GO EXECUTE SUBROUTINE
         MEXIT
.NOADDR  ANOP
         MNOTE 8,'** NO SUBROUTINE ADDRESS SPECIFIED'
         MEND
