         MACRO
&NAME    ROUT
.*********************************************************************
.*       PDSDOC *RE-ENTRANT SUB-ROUTINE EXIT MACRO....................* ROUT
.*
.*       THIS IS THE PARTNER MACRO TO 'RIN' AND WILL RESTORE ALL
.*       SAVED REGISTERS AND THEN RETURN CONTROL TO THE LINK REGISTER
.*       DEFINED IN THE RIN MACRO. (SEE COMMENTS AN 'RIN' MACRO
.*       FOR MORE DETAILS.
.*
.*********************************************************************
.*
.* 01APR92 CART1 COPIED 'SEGOUT'
.*
.*********************************************************************
.*      VARIABLE DEINITION AREA
.*********************************************************************
         GBLA  &SEGBCTR            COUNTER OF FULLWORDS USED
         LCLC  &WORKC              USED TO TIDY UP NAME FIELDS
         LCLC  &WORKD              GENERAL WORK AREA
         LCLA  &INDX               WORK INDEX
         GBLC  &SGBARR1(200)       HOLD SAVE REG DETAILS ACROSS SEGMNT
         GBLC  &SGBARR2(200)       HOLD SAVE REG DETAILS ACROSS SEGMNT
         GBLA  &SGBINDX            INDEX FOR THE ARRAY
.*********************************************************************
.*       DEFINE A LABEL IF HE WANTS ONE
.*********************************************************************
         AIF   (T'&NAME EQ 'O').NONAME
&NAME    EQU   *                   EXIT POINT THIS SEGMENT
.NONAME  ANOP
.*********************************************************************
.*       RESTORE REGISTERS
.*********************************************************************
&INDX    SETA  1                   INITIALISE LOOP COUNTER
.LOOP1   ANOP                      LOOP FOR REGISTERS TO BE SAVED
&WORKC   SETC  '&SGBARR1(&INDX)'   GENERATE THE NEXT SLOT NAME
&WORKD   SETC  '&SGBARR2(&INDX)'   GENERATE THE REGISTER NAME
         L     &WORKD,&WORKC       RESTORE REGISTER
&INDX    SETA  &INDX+1             INCREMENT LOOP COUNTER
         AIF   (&INDX LT &SGBINDX).LOOP1 PROCESS ALL SPECIFIED OPERANDS
.*********************************************************************
.*       GENERATE THE RETURN LINKAGE
.*********************************************************************
&WORKD   SETC  '&SGBARR2(1)'       GET LINK REGISTER NAME
         BR    &WORKD              RETURN TO CALLER
         MEND
