         MACRO
&NAME    #STOW &DCB,&AREA
.*--------------------------------------------------------------------*
.*---    THIS IS A MODIFIED VERSION OF THE 'STOW' MACRO, FOR USE   ---*
.*---    BY THE ARCHIVER PROGRAM.  RATHER THAN DEPENDING ON A      ---*
.*---    PARAMETER IN THE MACRO INVOCATION, IT CHECKS THE          ---*
.*---    'REPLACE' FLAG IN THE ARCHIVER WORK AREA TO DETERMINE     ---*
.*---    WHETHER THE REPLACE OPTION OF STOW IS APPROPRIATE.        ---*
.*---    SINCE WE ONLY ALLOW OR DISALLOW THE REPLACE OPTION, ALL   ---*
.*---    REFERENCES TO 'DELETE' OR 'CHANGE' PROCESSING ARE         ---*
.*---    DELETED.                                                  ---*
.*--------------------------------------------------------------------*
         LCLC  &L1,&L2
&L1      SETC  '#STO&SYSNDX'
&L2      SETC  '#STR&SYSNDX'
&NAME    #IF   REPL,OFF,&L1
         STOW  &DCB,&AREA,R        INDICATE REPLACE
         LA    15,X'1C'(,15)       MODIFIED RETURN CODE
         B     &L2                 PROCESS RETURN CODE
&L1      DS    0H
         STOW  &DCB,&AREA          ISSUE STOW SVC
&L2      DS    0H
         MEND
