       MACRO
.**********************************************************************
.*
.*  12/12/00  1.0    WRITTEN                                     AWR *
.*
.**********************************************************************
.*
.*
.* BALO FOR RENT ASM PROGRAM END "PERFORMED" PROCEDURE BY BAL R1,NAME
.*
.*
&NAME  INSTBALO
       GBLA  &INSTBALN
&NAME  DS    0H
       L     R1,INSTWORK_BAL+4*&INSTBALN-4
       BR    R1

       MEND
