       MACRO
.**********************************************************************
.*
.*  12/12/00  1.0    WRITTEN                                     AWR *
.*
.**********************************************************************
.*
.*
.* BALI FOR RENT ASM PROGRAM START "PERFORMED" PROCEDURE BY BAL R1,NAME
.*
.*
.*
&NAME  INSTBALI &TRACE=
         GBLA  &INSTBALN
         AIF   ('&NAME' NE '').NAMEOK
         MNOTE 8,'NAME MUST BE SPECIFIED'
         MEXIT
.NAMEOK  ANOP

       AIF ('&TRACE' NE 'TPUT').TPUTZ

&NAME  DS    0H
       ST    R1,INSTWORK_BAL+4*&INSTBALN

&INSTBALN  SETA  &INSTBALN+1


       TPUT  &NAME._INSTBALI_FLAG,L'&NAME._INSTBALI_FLAG
       B     &NAME._INSTBALI_FLAG_Z
&NAME._INSTBALI_FLAG DC C'&NAME'
&NAME._INSTBALI_FLAG_Z DS  0H
        MEXIT
.TPUTZ   ANOP



&NAME  DS    0H

       ST    R1,INSTWORK_BAL+4*&INSTBALN

&INSTBALN  SETA  &INSTBALN+1

       MEND
