         MACRO
&NAME    INSTLEN &FIELD,&DLM=' ',&LEN=
&NAME    DS    0H



         LCLA  &SUBA,&RESN
         LCLC  &DL


         INSTREQU


         AIF   ('&FIELD' NE '').A
         MNOTE 4,'FIELD NOT SPECIFIED'
         MEXIT
.A       ANOP


&DL      SETC  '&DLM'
         AIF   ('.&DLM' NE '.').DLMB
&DL      SETC  ''' '''
.DLMB    ANOP



         LA    R1,&FIELD
         LA    R14,&FIELD
         AIF   ('&LEN' NE '').LENB
         LA    R15,&FIELD+L'&FIELD
.LENB    ANOP
         AIF   ('&LEN' EQ '').LENC
         LA    R15,&FIELD+&LEN
.LENC    ANOP
INSA&SYSNDX   EQU   *
         CR   R1,R15
         BNL  INS0&SYSNDX
         CLI  0(R1),C&DLM
         BE   INS0&SYSNDX
         LA   R1,1(R1)
         B    INSA&SYSNDX
INS0&SYSNDX   EQU   *
         SR   R1,R14
         MEND
         MACRO
