         MACRO
&NAME    INSTPRS &FIELD,&RES=,&DLM=' ,',&LEN=
&NAME    DS    0H

         GBLA  &INSTPRSN
         LCLA  &SUBA,&RESN

&INSTPRSN  SETA  &INSTPRSN+1

         AIF   ('&FIELD' NE '').A
         MNOTE 4,'FIELD NOT SPECIFIED'
         MEXIT
.A       ANOP


         AIF   ('&RES' NE '').B
         MNOTE 4,'RESULT NOT SPECIFIED'
         MEXIT
.B       ANOP

.C       ANOP

         AIF   ('&LEN' NE '').LENB
         LA    R1,L'&FIELD
         AGO   .LENZ
.LENB    ANOP
         AIF   ('&LEN'(1,1) NE '(').LENC
         LR    R1,&LEN
         AGO   .LENZ
.LENC    ANOP
         LA    R1,&LEN
.LENZ    ANOP

         STH   R1,INSPRS_LEN
         B     INSF&SYSNDX
INSD&SYSNDX DC  Y(INSE&SYSNDX-*-2),C&DLM
INSE&SYSNDX DS  0C
INSF&SYSNDX DS  0H
         DS  0H
&SUBA    SETA  1
&RESN    SETA N'&RES
         LA     R1,&RESN
         STH    R1,INSPRS_RECFL
         LA     R1,&RESN
         STH    R1,INSPRS_RECFL
.E       ANOP
         LA     R1,L'&RES(&SUBA)
         STH    R1,INSPRS_RECFL+0+2*&SUBA
         LA     R1,&RES(&SUBA)
         ST     R1,INSPRS_CALL+12+4*&SUBA
&SUBA    SETA   &SUBA+1
         AIF    (&SUBA LE &RESN).E
.CALL    ANOP
INSZ&SYSNDX DS  0H
.CALL1   ANOP
         CALL   INSTPRSE,(INSPRS_LEN,INSD&SYSNDX,INSPRS_RECFL,         X
               &FIELD),MF=(E,INSPRS_CALL)
         MEND
         MACRO
