         MACRO
&NAME    $BSM  &OFF,&BR1
         GBLC  &ADRMODE
         AIF   ('&ADRMODE' EQ '24').GO24
&NAME    BSM   &OFF,&BR1
         AGO   .BSMEXIT
.GO24    ANOP
&NAME    DS    0H
.BSMEXIT ANOP
         MEXIT
         MEND
