         MACRO
*  ---------------------------------------------------------------  *
*    This macro is used to display hex values in a printed report.
*  ---------------------------------------------------------------  *
&NAME    HEX   &TO,&LEN,&FROM
&NAME    DS    0H
         ST    R4,SAVER4B
         STM   15,1,HEXSAVE
         LA    1,&FROM
         LA    0,&LEN
         LA    15,&TO
         BAL   4,HEX
         L     R4,SAVER4B
         LM    15,1,HEXSAVE
         MEND
