         MACRO
&NAME    TESTOPEN  &DCB,&BRANCH
&NAME    LA    1,&DCB              REG 1 = DCB ADDRESS
         TM    48(1),X'10'         TEST FOR SUCCESSFUL OPEN.
         AIF   ('&BRANCH' EQ '').NOEXIT
         BZ    &BRANCH             NOT OPEN BRANCH
         MEXIT
.NOEXIT  EQU   *                   OPEN OR NO BRANCH ADDR SPECIFIED
         MEND
