         MACRO
&NAME    COMMENT  &COM
.**********************************************************************
.*  WRITE A COMMENT TO THE  //MSG DD SYSOUT=A  DATASET.               *
.*            THIS MACRO PERMITS COMMENTS TO BE WRITTEN TO THE        *
.*       //MSG (SYSOUT) DATASET INTERSPERSED WITH THE OUTPUT (IF ANY) *
.*       FROM "MSG" MACROS. IF NO FORMATTING SERVICES ARE REQUIRED,   *
.*       THIS MACRO SHOULD BE USED IN PLACE OF THE "MSG" MACRO        *
.*       BECAUSE IT ENTAILS MINIMAL OVERHEAD. REGISTERS 0, 1, 14,     *
.*       AND 15 ARE USED BY THE MACRO AND ARE NOT RESTORED.           *
.*        -NAME-   COMMENT '  ANY COMMENT UP TO 132 BYTES IN LENGTH'  *
.*       NOTES:                                                       *
.*       1. APOSTROPHIES ARE THE DELIMITERS OF THE COMMENT, WHICH     *
.*          MAY CONTAIN A PRINTABLE CHARACTER. APOSTROPHIES AND       *
.*          AMPERSANDS (&) INSIDE THE COMMENT MUST BE DOUBLED.        *
.*       2. THE COMMENT MACRO WRITES BY CALLING THE SFI SUBROUTINE    *
.*          "MSGWRITE".                                               *
.**********************************************************************
         LCLA &BLK,&REC
         AIF ('&COM' EQ '').END
&REC     SETA  3+K'&COM      RECORD LENGTH
&BLK     SETA  4+&REC        BLOCK LENGTH
&NAME    L 15,=V(MSGWRITE)   REG 15 = ENTRY POINT OF MSGWRITE ROUTINE
         CNOP 0,4
         BAL 1,COMM&SYSNDX   REG 1 = MESSAGE ADDRESS
         DC H'&BLK,0,&REC,0',C'0',C&COM     MESSAGE
COMM&SYSNDX BALR 14,15       LINK TO MSGWRITE ROUTINE.
.END     MEND
