         MACRO                                                          0000000
&NAME    CONVERT &EVENREG,&DIGITS,&DBLWD,&TYPE=DEC                      0000000
.*                                                                      0000000
.*  THIS MACRO WILL PERFORM HEX TO HEX CHARACTER OR DECIMAL             0000000
.*  CHARACTER CONVERSIONS.  IT USES AN EVEN-ODD PAIR OF REGS            0000000
.*  AND A DOUBLE WORD OF STORAGE TO DO ITS CALCULATIONS.                0000000
.*                                                                      0000000
         GBLC  &CONV                                                    0000000
         GBLC  &P                                                       0000000
         LCLA  &N                                                       0000000
         LCLA  &ODDREG                                                  0000000
         LCLA  &LCLDIGS                                                 0000000
&N       SETA  0                                                        0000000
&ODDREG  SETA  &EVENREG+1                                               0000000
&LCLDIGS SETA  &DIGITS                                                  0000000
         AIF   (T'&EVENREG NE 'N').ERR1                                 0000000
         AIF   (T'&DIGITS NE 'N').ERR2                                  0000000
         AIF   ('&NAME' EQ '').NONAME                                   0000000
&NAME    EQU   *                                                        0000000
.NONAME  ANOP                                                           0000000
         AIF   ('&TYPE' NE 'DEC').NODEC                                 0000000
         AIF   (&DIGITS GT 5).ERR4                                      0000000
         CVD   &EVENREG,&DBLWD                                          0000000
         UNPK  &DBLWD.(&DIGITS.),&DBLWD+5(3)                            0000000
         OI    &DBLWD+&DIGITS-1,X'F0'                                   0000000
         MEXIT                                                          0000000
.NODEC   ANOP                                                           0000000
         AIF   (&DIGITS GT 4).ERR3                                      0000000
&CONV    SETC  'YES'   SO CPDATA KNOWS A HEX CONVERT WAS ISSUED         0000000
         AIF   (&LCLDIGS EQ 0).DONE                                     0000000
         SRDL  &EVENREG,4                                               0000000
         SRL   &ODDREG,4                                                0000000
&LCLDIGS SETA  &LCLDIGS-1                                               0000000
         AGOB  .NODEC                                                   0000000
.DONE    ANOP                                                           0000000
         ST    &ODDREG,&DBLWD                                           0000000
         TR    &DBLWD.(&DIGITS.),&P.CHARS                               0000000
         MEXIT                                                          0000000
.ERR1    ANOP                                                           0000000
         MNOTE 8,'FIRST OPERAND NOT NUMERIC'                            0000000
         MEXIT                                                          0000000
.ERR2    ANOP                                                           0000000
         MNOTE 8,'SECOND OPERAND NOT NUMERIC'                           0000000
         MEXIT                                                          0000000
.ERR3    ANOP                                                           0000000
         MNOTE 8,'SECOND OPERAND > 4 ON HEX CONVERT'                    0000000
         MEXIT                                                          0000000
.ERR4    ANOP                                                           0000000
         MNOTE 8,'SECOND OPERAND > 5 ON DEC CONVERT'                    0000000
         MEND                                                           0000000
