         MACRO                                                          0000000
&NAME    CPINIT &IOPL=NO,&PCL=NONE,&DYN=NO,&PREFIX=IPG                  0000000
         GBLC  &GIOPL                                                   0000000
         GBLC  &GPCL                                                    0000000
         GBLC  &GDYN                                                    0000000
         GBLC  &P                                                       0000000
         LCLA  &A                                                       0000000
.*   CHECK THE VALIDITY OF THE PREFIX (MUST BE <= 3 CHARS)              0000000
         AIF   (K'&PREFIX LE 3).PFXOK                                   0000000
         MNOTE 8,'PREFIX > 3 CHARS, SHORTENED'                          0000000
&P       SETC  '&PREFIX'(1,3)                                           0000000
         AGO   .PFXEND                                                  0000000
.PFXOK   ANOP                                                           0000000
&P       SETC  '&PREFIX'                                                0000000
.PFXEND  ANOP                                                           0000000
&GIOPL   SETC  '&IOPL'                                                  0000000
&GPCL    SETC  '&PCL'                                                   0000000
&GDYN    SETC  '&DYN'                                                   0000000
&NAME    CSECT                                                          0000000
.*   GENERATE REG EQUATES                                               0000000
&A       SETA  0                                                        0000000
.LOOP    ANOP                                                           0000000
R&A      EQU   &A                                                       0000000
&A       SETA  &A+1                                                     0000000
         AIF   (&A LT 16).LOOP                                          0000000
.*   GENERATE THE INITIALIZATION CODE                                   0000000
         MNOTE *,'       SAVE  (14,12),,*'                              0000000
         SAVE  (14,12),,*                                               0000000
         LR    R10,R15        INITIALIZE BASE REG                       0000000
         USING &NAME,R10      ESTABLISH ADDRESSIBILITY                  0000000
         MNOTE *,'       GETMAIN R,LV=&P.LEN,SP=0'                      0000000
         GETMAIN R,LV=&P.LEN,SP=0                                       0000000
         ST    R13,4(R1)     SAVE THE BACK CHAIN                        0000000
         ST    R1,8(R13)                                                0000000
         LR    R13,R1         R13 => DYNAMIC STORAGE                    0000000
         USING &P.DATA,R13                                              0000000
******************************************                              0000000
*  INITIALIZE THE CONTROL BLOCKS         *                              0000000
******************************************                              0000000
         L     R1,4(R13)                                                0000000
         L     R1,24(R1)      R1 => CPPL                                0000000
         USING CPPL,R1                                                  0000000
         AIF   ('&IOPL' EQ 'NO').NOIOPL                                 0000000
*  FILL IN THE UPT, ECT, AND ECB FIELDS OF THE IOPL                     0000000
.*   AND LEAVE THE POINTER TO THE PARM BLOCK EMPTY                      0000000
         MVC   &P.IOPL+(IOPLUPT-IOPL)(4),CPPLUPT                        0000000
         MVC   &P.IOPL+(IOPLECT-IOPL)(4),CPPLECT                        0000000
         XC    &P.ECB(4),&P.ECB   ZERO THE ECB                          0000000
         LA    R2,&P.ECB                                                0000000
         ST    R2,&P.IOPL+(IOPLECB-IOPL)                                0000000
.NOIOPL  ANOP                                                           0000000
         AIF   ('&PCL' EQ 'NONE').NOPCL                                 0000000
*  FILL IN ALL THE FIELDS OF THE PARSE PARAMETER LIST (PPL)             0000000
         MVC   &P.PPL+(PPLUPT-PPL)(4),CPPLUPT                           0000000
         MVC   &P.PPL+(PPLECT-PPL)(4),CPPLECT                           0000000
         LA    R2,&P.ECB                                                0000000
         ST    R2,&P.PPL+(PPLECB-PPL)                                   0000000
         L     R2,&P.PCLAD                                              0000000
         ST    R2,&P.PPL+(PPLPCL-PPL)                                   0000000
         LA    R2,&P.ANS                                                0000000
         ST    R2,&P.PPL+(PPLANS-PPL)                                   0000000
         MVC   &P.PPL+(PPLCBUF-PPL),CPPLCBUF                            0000000
         XC    &P.PPL+(PPLUWA-PPL),&P.PPL+(PPLUWA-PPL)                  0000000
.NOPCL   ANOP                                                           0000000
         AIF   ('&DYN' EQ 'NO').NODYN                                   0000000
*  FILL IN THE DYNAMIC ALLOCATION REQUEST BLOCK POINTER                 0000000
         LA    R2,&P.RB                                                 0000000
         ST    R2,&P.RBPTR                                              0000000
         OI    &P.RBPTR,S99RBPND                                        0000000
.NODYN   ANOP                                                           0000000
         DROP  R1                                                       0000000
         EJECT                                                          0000000
         MEND                                                           0000000
