         MACRO                                                          0000000
&NAME    GNRLFAIL &RET=,&TYPE=,&GFCB=,&CPPL=,&KEYN08=NO                 0000000
.*                                                                      0000000
.*  THIS MACRO IS USED TO ISSUE ERROR MESSAGES FOR CERTAIN              0000000
.*  FAILURES.  IT IS ASSUMED THAT ON ENTRY R15 CONTAINS                 0000000
.*  EITHER THE ERROR RETURN CODE OR ABEND CODE. THIS ROUTINE            0000000
.*  WILL DESTROY R1.                                                    0000000
.*                                                                      0000000
         GBLC  &P                                                       0000000
         GBLC  &GNRLF                                                   0000000
         LCLC  &CALLID                                                  0000000
         LCLC  &GNRLFCB                                                 0000000
         LCLC  &LCLLBL                                                  0000000
         LCLC  &GFBITS                                                  0000000
         AIF   ('&TYPE' EQ '').ERR1   MUST SUPPLY TYPE                  0000000
         AIF   ('&RET' EQ '').SYSLBL                                    0000000
&LCLLBL  SETC  '&RET'                                                   0000000
         AGO   .CONT1                                                   0000000
.SYSLBL  ANOP                                                           0000000
&LCLLBL  SETC  '&P'.'&SYSNDX'                                           0000000
.CONT1   ANOP                                                           0000000
         AIF   ('&GFCB' EQ '').NOGFCB                                   0000000
&GNRLFCB SETC  '&GFCB'                                                  0000000
         AGO   .CONT2                                                   0000000
.NOGFCB  ANOP                                                           0000000
&GNRLFCB SETC  '&P'.'GNRLF'                                             0000000
&GNRLF   SETC  'YES'  SO CPDATA ALLOCATES CONTROL BLOCKS                0000000
.CONT2   ANOP                                                           0000000
.*  DETERMINE THE CORRECT GFBITS SETTING BASED UPON THE                 0000000
.*  GNRLFAIL TYPE REQUEST AND THE PROTECT KEY                           0000000
&GFBITS  SETC  '0'                                                      0000000
         AIF   ('&TYPE' NE 'SSREQ' OR '&KEYN08' NE 'YES').CONT4         0000000
&GFBITS  SETC  'GFKEYN08+GFSUBSYS'                                      0000000
         AGO   .CONT6                                                   0000000
.CONT4   ANOP                                                           0000000
         AIF   ('&TYPE' NE 'SSREQ').CONT5                               0000000
&GFBITS  SETC  'GFSUBSYS'                                               0000000
         AGO   .CONT6                                                   0000000
.CONT5   ANOP                                                           0000000
         AIF   ('&KEYN08' NE 'YES').CONT6                               0000000
&GFBITS  SETC  'GFKEYN08'                                               0000000
.CONT6   ANOP                                                           0000000
         AIF   ('&NAME' EQ '').NONAME                                   0000000
&NAME    EQU   *                                                        0000000
.NONAME  ANOP                                                           0000000
         AIF   ('&TYPE' NE 'PARSE').NOPARS                              0000000
         LA    R1,4           IF PARSE ERROR CODE IS 4 OR 20,           0000000
         CR    R15,R1         ERROR MESSAGE HAS BEEN ISSUED             0000000
         BE    &LCLLBL                                                  0000000
         LA    R1,20                                                    0000000
         CR    R15,R1                                                   0000000
         BE    &LCLLBL                                                  0000000
.NOPARS  ANOP                                                           0000000
         LA    R1,&GNRLFCB+4   R1 => GNRLFAIL CONTROL BLOCK             0000000
         ST    R1,&GNRLFCB                                              0000000
         USING GFCBPTR,R1                                               0000000
         AIF   ('&TYPE' EQ 'SSREQ').SSREQT    DON'T ZERO PTR IF SSREQ   0000000
         XC    GFCBPTR,GFCBPTR  ZERO THE OPTIONAL POINTERS              0000000
         AGO   .CONT3                                                   0000000
.SSREQT  ANOP                                                           0000000
         ST    R0,GFCBPTR     R0 => SSOB                                0000000
.CONT3   ANOP                                                           0000000
         XC    GF02PTR,GF02PTR   ZERO PTR TO TSO MESSAGE ISSUER         0000000
         ST    R15,GFRCODE   STORE THE RETURN OR ABEND CODE             0000000
         AIF   ('&TYPE' NE 'PUTLINE').NOPUTL                            0000000
&CALLID  SETC  'GFPUTL'                                                 0000000
         AGO   .LINK                                                    0000000
.NOPUTL  ANOP                                                           0000000
         AIF   ('&TYPE' NE 'PARSE').NOPRS                               0000000
&CALLID  SETC  'GFPARSE'                                                0000000
         AGO   .LINK                                                    0000000
.NOPRS   ANOP                                                           0000000
         AIF   ('&TYPE' NE 'ABEND').NOABND                              0000000
&CALLID  SETC  'GFABEND'                                                0000000
         AGO   .LINK                                                    0000000
.NOABND  ANOP                                                           0000000
         AIF    ('&TYPE' NE 'SSREQ').ERR3                               0000000
&CALLID  SETC  'GFSSREQ'                                                0000000
.LINK    ANOP                                                           0000000
         LA    R15,&CALLID   SET THE FALURE CODE INTO                   0000000
         STH   R15,GFCALLID   THE CONTROL BLOCK                         0000000
         MVI   GFBITS,&GFBITS                                           0000000
         XC    GFRESV1,GFRESV1                                          0000000
         AIF   ('&CPPL' NE '').CPPL                                     0000000
         L     R15,4(R13)                                               0000000
         L     R15,24(R15)    R15 => CPPL                               0000000
         AGO   .NOCPPL                                                  0000000
.CPPL    ANOP                                                           0000000
         L     R15,&CPPL      R15 => CPPL                               0000000
.NOCPPL  ANOP                                                           0000000
         ST    R15,GFCPPLP                                              0000000
         XC    GFDSNLEN,GFDSNLEN                                        0000000
         XC    GFPGMNL,GFPGMNL     ZERO THE PROGRAM NAME LENGTH         0000000
         XC    GFDSNP,GFDSNP                                            0000000
         XC    GFPGMNP,GFPGMNP                                          0000000
         XC    GFRESV2,GFRESV2                                          0000000
         XC    GFRESV3,GFRESV3                                          0000000
         DROP  R1                                                       0000000
         LA    R1,&GNRLFCB                                              0000000
         LINK  EP=IKJEFF19                                              0000000
         AIF   ('&RET' EQ '').GENLBL                                    0000000
         B     &LCLLBL           GO TO ERROR LABEL                      0000000
         AGO   .EXIT                                                    0000000
.GENLBL  ANOP                                                           0000000
         AIF   ('&TYPE' NE 'PARSE').EXIT                                0000000
&LCLLBL  DS    0H                                                       0000000
.EXIT    ANOP                                                           0000000
         MEXIT                                                          0000000
.ERR1    ANOP                                                           0000000
         MNOTE 8,'TYPE PARAMETER MISSING ON GNRLFAIL'                   0000000
         DC    F'0'                                                     0000000
         MEXIT                                                          0000000
.ERR3    ANOP                                                           0000000
         MNOTE 8,'INVALID TYPE ON GNRLFAIL'                             0000000
         DC    F'0'                                                     0000000
         MEXIT                                                          0000000
         MEND                                                           0000000
