         MACRO
&NAME    LINKBACK
.**********************************************************************
.*                 L  I  N  K  B  A  C  K                             *
.*       LINKBACK RESTORE THE PREVIOUS SAVE AREA ADDRESS FROM R13,    *
.*       RESTORES REGISTERS 14, AND 2-12. ALSO IT SETS THE FLAG       *
.*       NECESSARY WHEN RETURNING TO FORTRAN AND FINALLY DOES THE     *
.*       THE ULTIMINATE  BR 14.                                       *
.**********************************************************************
&NAME    L     13,4(13)                SELECT PREVIOUS SAVE AREA
         LM    2,12,28(13)             RESTORE REG 2-12
         L     14,12(13)               RESTORE REG 14.
         MVI   12(13),X'FF'            SET FORTRAN FLAG
         BR    14                      DO THE RETURN TO CALLER
         MEND
