         MACRO
&NAME    LOADIT  &REG,&SYMBOL,&TYPE
         LCLC  &A
&A       SETC '&SYMBOL'(1,1)
         AIF ('&A' EQ '(').REGFORM
&NAME    L&TYPE &REG,&SYMBOL
         MEXIT
.REGFORM ANOP
&NAME    L&TYPE &REG,0&SYMBOL
         MEND
