         MACRO
&NAME    TESTOPEN &DCB,&EXIT
&NAME    LOADIT 1,&DCB,A     REG 1 = DCB ADDRESS
         TM 48(1),X'10'      TEST FOR SUCCESSFUL OPEN.
         AIF ('&EXIT' EQ '').NOEXIT
         LOADIT 15,&EXIT,A   REG 15 = EXIT ADDRESS
         BCR 8,15            BRANCH IF NO OPEN.
         MEXIT
.NOEXIT  BO TEST&SYSNDX      BRANCH IF OPEN OK.
         COMMENT 'OPEN TEST FAILED.'
         SVC 3
TEST&SYSNDX EQU *
         MEND
