CALC     TITLE 'DESK CALCULATOR'
***********************************************************************
***********************************************************************
**                                                                   **
**  PROGRAM NAME:  CALC                                              **
**                                                                   **
**  AUTHOR:        ?                                                 **
**                                                                   **
**  DATE:          ?                                                 **
**                                                                   **
**  INSTALLATION:  ?                                                 **
**                                                                   **
**  PURPOSE:       ?                                                 **
**                                                                   **
**  HISTORY:       THIS PROGRAM USED TO BE AN URSA PROCESSOR AT CCN. **
**                 IT WAS THEN CONVERTED TO A TSO COMMAND AT CCN.    **
**                                                                   **
**                 I STRONGLY RECOMMEND THAT YOU GIVE UP ANY         **
**                 PERVERSE THOUGHTS OF CLEANING UP THIS TRAVESTY.   **
**                 ... BE THANKFUL THAT YOU CAN EVEN GET IT TO WORK. **
**                                                                   **
**  UPDATES:                                                         **
**     02/21/80 LDW   1) MAKE THIS TURKEY ASSEMBLE WITHOUT THE       **
**                       "BATCH" OPTION (WHICH THE IFOX ASSEMBLER    **
**                       DOES NOT HAVE!!!)                           **
**                    2) COPY UNIQUE MACROS INLINE                   **
**                    3) CHANGE TO STANDARD SYMBOLIC REGISTERS       **
**                                                                   **
***********************************************************************
***********************************************************************
         TITLE 'C A L C  -  STUPID MACROS'
         MACRO
&NAME    BCE   &FINDADS,&REG,&CHR
.*$MACRO=BCE        DATE=04/00/79       SOURCE=UCLA
.*       THE BCE MACRO WILL COMPARE &REG WITH THE LIST OF CHARACTERS
.*       GIVEN IN &CHR. IF AN EQUAL MATCH HAS BEEN MADE, CONTROL
.*       WILL PASS TO &FINDADS.
.*       THE CONTENTS OF R0 WILL BE DESTROYED BY THE MACRO, AND
.*       &REG MUST HAVE ZEROS IN THE HIGH ORDER THREE BYTES.
         LCLA  &COUNT
         LCLC  &X
&COUNT   SETA  1
&NAME    SR    R0,R0
.LOOP    AIF   ('&CHR(&COUNT)'(1,1) NE 'X').CHAR
&X       SETC  '&CHR(&COUNT)'(2,2)
         IC    R0,=X'&X'
         AGO   .CR
.CHAR    IC    R0,=C&CHR(&COUNT)
.CR      CR    R0,&REG
         BE    &FINDADS
&COUNT   SETA  &COUNT+1
         AIF   (&COUNT LE N'&CHR).LOOP
         MEND
         SPACE 3
         MACRO
&NAME    ZGPR  &REG
.*.
.*$MACRO=ZGPR       DATE=04/00/79       SOURCE=UCLA
.*       THE ZGPR MACRO WILL ZERO THE GPR'S GIVEN IN THE LIST &REG.
.*.
         LCLA  &LENGTH,&COUNT
&LENGTH  SETA  N'&REG+1
&COUNT   SETA  1
         AIF   ( '&NAME' EQ '' ).LOOP
&NAME    EQU   *
.LOOP    SR    &REG(&COUNT),&REG(&COUNT)
&COUNT   SETA  &COUNT+1
         AIF   ( '&COUNT' LT '&LENGTH' ).LOOP
         MEND
         SPACE 3
         MACRO
&NAME    ADDG  &REG,&NO
.*.
.*$MACRO=ADDG       DATE=04/00/79       SOURCE=UCLA
.*       THE ADDG MACRO WILL ADD &NO TO &REG. &NO MUST BE A NUMBER
.*       LESS THAN 4096 AND &REG MUST BE A NUMBER BETWEEN 1 AND 15.
.*.
&NAME    LA    &REG.,&NO.(&REG.)
         MEND
         SPACE 3
         MACRO
&NAME    PLOP  &REG
.*.
.*$MACRO=PLOP       DATE=04/00/79       SOURCE=UCLA
.*       PLOP WILL PLACE THE ENTITY INTO A STACK POINTED TO BY
.*       GPR &REG.
.*.
&NAME    STM   R15,R1,0(&REG.)
         ADDG  &REG,12
         MEND
         SPACE 3
         MACRO
&NAME    STACKO &REG,&ENDLOC
.*.
.*$MACRO=STACKO     DATE=04/00/79       SOURCE=UCLA
.*       THE SCACKO MACRO WILL POP ONE ENTITY FROM THE STRING THAT
.*       IS THE RESULT OF SCAN 1 OR 2.
.*       &REG IS THE POINTER TO THE NEXT CONTROL BYTE.
.*       &ENDLOC IS THE TRANSFER POINT IF AN EOB IS FOUND.
.*       THE RESULT OF THE POP IS THAT R0 AND R1 CONTAIN THE
.*       ENTITY AND GPR 15 CONTAINS THE CONTROL BYTE.
.*       OPERATORS ARE FOUND IN ONLY THE LOW ORDER BYTE IN R1.
.*         (THE EOB OPERATOR WILL BE FOUND IN THE SAME PLACE
.*          AS OTHER OPERATORS AFTER THE TRANSFER.)
.*       LITERALS OCCUPY BOTH GPR'S.
.*       LABELS ARE RIGHT ADJUSTED IN R1.
.*.
&NAME    ZGPR  R15                   CLEAR REGISTER
         IC    R15,0(&REG.)          GET CONTROL BYTE.
         LR    R14,R15               TRANSFER IT.
         ADDG  &REG,1                ADD ONE TO COUNT.
         N     R14,=F'128'           TEST FOR OPERATOR.
         BZ    OPO&SYSNDX            YES, A OPERATOR.
         LR    R14,R15               NO, TRANSFER CONTROL BYTE.
         N     R14,=F'64'            TEST FOR OPERAND
         BZ    OPN&SYSNDX            YES, A LABEL OPERAND.
         LA    R14,8                 NO, A LITERAL OPERAND.
L1&SYSNDX SLDL R0,8                  SHIFT.
         IC    R1,0(&REG.)           GET NEXT CHARACTER.
         ADDG  &REG,1                ADD ONE TO COUNT.
         BCT   R14,L1&SYSNDX         BRANCH AND COUNT.
         B     L3&SYSNDX             TERMINATE.
OPO&SYSNDX ZGPR R0                   OPERATOR. CLEAR R0.
         ZGPR  R1                    AND ONE.
         IC    R1,0(&REG.)           GET THE OPERATOR.
         ADDG  &REG,1                AND ADD ONE TO THE COUNT.
         BCE   &ENDLOC,R1,X26        IS IT AN EOB...
         B     L3&SYSNDX             NO, TERMINATE.
OPN&SYSNDX ZGPR R0                   OPERAND, OR LABEL THAT IS.
         ZGPR  R1                    CLEAR REGISTERS.
         LR    R14,R15               GET COUNT LENGTHE.
         N     R14,=F'15'            EDIT.
L2&SYSNDX SLDL R0,8                  SHIFT
         IC    R1,0(&REG.)           GET CHARACTR.
         ADDG  &REG,1                ADD ONE TO COUNT.
         BCT   R14,L2&SYSNDX         BRANCH AND COUNT.
L3&SYSNDX EQU  *                     THIS IS THE END.
         MEND
         SPACE 3
         MACRO
&NAME    POPP  &REG,&ENDLOC
.*.
.*$MACRO=POPP       DATE=02/00/80       SOURCE=LDW
.*$MACRO=POP        DATE=04/00/79       SOURCE=UCLA
.*       THE POP MACRO WILL POP ONE ENTITY FROM THE GENERAL
.*       STACKS POINTED TO BY GPR &REG. IF AN EOB IS FOUND, CONTROL
.*       WILL TRANSFER TO &ENDLOC.
.*       AN EOB WILL BE FOUND IN THE ENTITY REGISTER AFTER THE
.*       TRANSFER.
&NAME    SH    &REG,=H'12'
         LM    R15,R1,0(&REG.)
         LR    R14,R15
         N     R14,=F'128'
         BM    GO&SYSNDX
         BCE   NO&SYSNDX,R1,X26
         B     GO&SYSNDX
NO&SYSNDX ADDG &REG,12
         B     &ENDLOC
GO&SYSNDX EQU  *
         MEND
         SPACE 3
         MACRO
&NAME    CHR   &END
.*.
.*$MACRO=CHR        DATE=04/00/79       SOURCE=UCLA
.*       THE CHR MACRO WILL PICK UP ONE CHARACTER FROM THE POINTER
.*       IN R4. IF THE CHARACTER IS A BLANK, IT WILL BE IGNORED.
.*       IF THE CHARACTER IS AN EOB, CONTROL WILL TRANSFER TO &END.
.*.
&NAME    ZGPR  R3
         IC    R3,0(R4)
         ADDG  R4,1
         C     R3,=F'64'     BLANK
         BE    &NAME
         C     R3,=F'38'     EOB
         BE    &END
         MEND
         SPACE 3
         MACRO
&NAME    SCANC &LIST,&LENGTH,&FINDADS
.*.
.*$MACRO=SCANC      DATE=04/00/79       SOURCE=UCLA
.*
.*       THE SCANC MACRO WILL SCAN &LIST FOR THE CHARACTER PRESENT
.*       IN R3. &LENGTH IS THE LENGTH OF THE LIST AND &FINDADS IS
.*       THE TRANSFER ADDRESS IF A MATCH IS MADE.
.*         R0  IS USED FOR THE TEST CHR. FROM THE LIST.
.*         R1  IS THE INDEX OF &LIST.
.*         R3  IS THE SCAN CHARACTER.
.*         GPR R14 IS THE INCREMENT GPR.
.*         GPR 15 IS THE UPPER LIMIT GPR.
.*.
&NAME    ZGPR  (R0,R1)
         LA    R14,1
         LA    R15,&LENGTH-1
GET&SYSNDX IC  R0,&LIST.(R1)
         CR    R0,R3
         BE    &FINDADS
         BXLE  R1,R14,GET&SYSNDX
         MEND
         SPACE 3
         MACRO
&NAME    LOOKUP
.*.
.*$MACRO=LOOKUP     DATE=04/00/79       SOURCE=UCLA
.*.
&NAME    BAL   R14,LOOK
         MEND
         EJECT
         MACRO
&LBL     TSENTRY &Z,&BASE=R12,&SYMREG=YES,&PL=,&GETMAIN=0,&MACRO=,     X
               &DSECT=NO,&LOAD=,&MAP=,&PARSE=,&EXIT=,&SP=1,&EPS=
.*.
.*$MACRO=TSENTRY    DATE=04/00/79       SOURCE=UCLA
.*
.* LAST UPDATED:
.*  WDD:  1/11/77 - ADD EPS=, SUPPORT MULTIPLE ENTRY POINTS
.*  WDD:      /76 - ADD EXIT=, EXIT ROUTINE GENERATION
.*  WDD:      /76 - ADD BASE=(BASE1,BASE2), PROVISION FOR 2ND BASE REG
.*.
         GBLB  &GDAIRM,&GPARSEM         FLAGS TO AVOID DUPLICATES
         GBLB  &GDAIR,&GPARSE           DAIR OR PARSE LOADED
         LCLA  &A,&J
         LCLB  &C,&P,&D,&I,&M
         LCLC  &PARNAME                 ENTRY PARM IF PARSE LOADED
         LCLA  &X,&N,&X1
         LCLC  &COM,&ADD
&N       SETA  N'&EPS                   NO. OF ALTERNATE ENTRY POINTS
&ADD     SETC  '&LBL'
&PARNAME SETC  ''
         SPACE 2
TSDSECT  DSECT
TSAVE    DS    18F                      SAVE AREA
         TSCPPL
         AIF   ('&PL' EQ '').L12
TSECB    DS    F                        ECB FOR THE TSO SERVICES
&A       SETA  1
.L1      AIF   ('&PL(&A)' NE 'CSCAN').L2
&C       SETB  1
         AGO   .L7
.L2      AIF   ('&PL(&A)' NE 'PARSE').L3
&P       SETB  1
         AGO   .L7
.L3      AIF   ('&PL(&A)' NE 'DAIR').L4
&D       SETB  1
         AGO   .L7
.L4      AIF   ('&PL(&A)' NE 'IO').L5
&I       SETB  1
         AGO   .L7
.L5      AIF   ('&PL(&A)' NE 'MESSAGE').L6
&M       SETB  1
         AGO   .L7
.L6      MNOTE 4,'UNKNOWN PL PARAMETER = &PL(&A)'
.L7      ANOP
&A       SETA  &A+1
         AIF   (&A LE N'&PL).L1
         AIF   ('&PARSE(2)' EQ '').L7E
&M       SETB  1                        GENERATE THE MESSAGE STUFF
.L7E     AIF   (NOT &C).L8
         TSCSPL
.L8      AIF   (NOT &P).L9
         TSPPL
.L9      AIF   (NOT &D).L10
         TSDAPL
DAPBAREA DS    22F *                    AREA FOR DAIR PARAMETER BLOCK
         TSDMPL
.L10     AIF   (NOT &I).L11
         TSIOPL
.L11     AIF   (NOT &M).L12
         TSMPL
.L12     ANOP
&J       SETA  0
.L12L    ANOP
&J       SETA  &J+1
         AIF   ('&LOAD(&J)'  EQ  '').L12Z
&LOAD(&J) DS   F
         AGO   .L12L
.L12Z    AIF   ('&MACRO' NE 'YES').L12A
         SPACE 2
***********************************************************************
*                                                                     *
*        DYNAMIC STORAGE DEFINED BY USER TSWORK MACRO                 *
*                                                                     *
***********************************************************************
         SPACE
         DS    0D                       BEGIN ON DOUBLE WORD BOUNDARY
         TSWORK
.L12A    AIF   ('&GETMAIN' EQ '0').L12B
TSWORK   DS    0D                       POINTER TO USER WORK AREA
.L12B    ANOP
TSDSECTL DS    0D
         AIF   ( NOT &D ).NODM
         AIF   ( &GDAIRM ).NODM
&GDAIRM  SETB  1                        SET 1 TIME FLAG
         EJECT
         IKJDAP08
DAPB08L  EQU   *-DAPB08 *               LENGTH OF DAPB08 BLOCK
         EJECT
         IKJDAP18
DAPB18L  EQU   *-DAPB18 *               LENGTH OF DAPB18 BLOCK
         SPACE 3
         IKJDAP1C
DAPB1CL  EQU   *-DAPB1C *               LENGTH OF DAPB1C BLOCK
         EJECT
         IKJDAP30
DAPB30L  EQU   *-DAPB30 *               LENGTH OF DAPB30 BLOCK
.NODM    ANOP
&J       SETA  0
         AGO   .L32B
.L32L    ANOP
         MNOTE *,'GENERATED DSECT FOR &MAP(&J) '
.L32B    ANOP
&J       SETA  &J+1
         AIF   ('&MAP(&J)'  EQ  '').L32Z
         EJECT
         AIF   ('&MAP(&J)' EQ 'ECT').ECT
         AIF   ('&MAP(&J)' EQ 'PBE').PBE
         AIF   ('&MAP(&J)' EQ 'PSCB').PSCB
         AIF   ('&MAP(&J)' EQ 'UPT').UPT
         AIF   ('&MAP(&J)' EQ 'DSE').DSE
         AIF   ('&MAP(&J)' EQ 'JSCB').JSCB
         AIF   ('&MAP(&J)' EQ 'TSCVT').TSCVT
         AIF   ('&MAP(&J)' EQ 'TJB').TJB
         AIF   ('&MAP(&J)' EQ 'TJBX').TJBX
         AIF   ('&MAP(&J)' EQ 'TSB').TSB
         AIF   ('&MAP(&J)' EQ 'TCB').TCB
         AIF   ('&MAP(&J)' EQ 'CVT').CVT
         AIF   ('&MAP(&J)' EQ 'ECTX').ECTX
         AIF   ('&MAP(&J)' EQ 'TAT').TAT
         AIF   ('&MAP(&J)' EQ 'UVT').UVT
         AIF   ('&MAP(&J)' EQ 'DAPB00').DAPB00
         AIF   ('&MAP(&J)' EQ 'DAPB04').DAPB04
         AIF   ('&MAP(&J)' EQ 'DAPB10').DAPB10
         AIF   ('&MAP(&J)' EQ 'DAPB14').DAPB14
         AIF   ('&MAP(&J)' EQ 'DAPB2C').DAPB2C
         AIF   ('&MAP(&J)' EQ 'DAPB34').DAPB34
         AIF   ('&MAP(&J)' EQ 'PDEDSECT').PDEDS
         MNOTE 4,'UNSUPPORTED MAP PARAMETER &MAP(&J) '
         AGO   .L32L
.ECT     IKJECT
         AGO   .L32L
.ECTX    ECTX
         AGO   .L32L
.PBE     PBE
         AGO   .L32L
.PSCB    IKJPSCB
         AGO   .L32L
.UPT     IKJUPT
         AGO   .L32L
.DSE     IKJDSE
         AGO   .L32L
.TSB     IKJTSB
         AGO   .L32L
.UVT     ANOP
UVT      DSECT
         CCNUVT
         AGO   .L32L
.TCB     IKJTCB
         AGO   .L32L
.CVT     ANOP
CVT      DSECT
         CVT
         AGO   .L32L
.JSCB    IEZJSCB
         AGO   .L32L
.TSCVT   IKJTSCVT
         AGO   .L32L
.TJB     IKJTJB
         AGO   .L32L
.TJBX    IKJTJBX
         AGO   .L32L
.DAPB00  IKJDAP00
DAPB00L  EQU   *-DAPB00                 LENGTH OF DAPB00
         AGO   .L32L
.DAPB04  IKJDAP04
DAPB04L  EQU   *-DAPB04                 LENGTH OF DAPB04
         AGO   .L32L
.DAPB10  IKJDAP10
DAPB10L  EQU   *-DAPB10                 LENGTH OF DAPB10
         AGO   .L32L
.DAPB14  IKJDAP14
DAPB14L  EQU   *-DAPB14                 LENGTH OF DAPB14
         AGO   .L32L
.DAPB2C  IKJDAP2C
DAPB2CL  EQU   *-DAPB2C                 LENGTH OF DAPB10
         AGO   .L32L
.DAPB34  IKJDAP34
DAPB34L  EQU   *-DAPB34                 LENGTH OF DAPB34
         AGO   .L32L
.PDEDS   PDEDSECT
         AGO   .L32L
.TAT     CCNUID
         EJECT
TAT      DSECT
         CCNTAT
         AGO   .L32L
.L32Z    AIF   ('&SYMREG' NE 'YES').L13
         SPACE 2
***********************************************************************
*                                                                     *
*                   DEFINE SYMBOLIC REGISTERS                         *
*                                                                     *
***********************************************************************
         SPACE 2
R0       EQU   0                        THE SYMBOLIC REGISTERS
R1       EQU   1
R2       EQU   2
R3       EQU   3
R4       EQU   4
R5       EQU   5
R6       EQU   6
R7       EQU   7
R8       EQU   8
R9       EQU   9
R10      EQU   10
R11      EQU   11
R12      EQU   12
R13      EQU   13
R14      EQU   14
R15      EQU   15
.L13     AIF   ('&DSECT' NE 'NO').L19
         EJECT
&LBL     CSECT
         TSAVE (14,12),,*
         AIF   (&N EQ 0).ONEENT         IF ONLY ONE ENTRY POINT
&COM     SETC  'TSE&SYSNDX.C'
.*       MVI   16(R13),0                PRIMARY ENTRY POINT NUMBER * 4
         XR    R4,R4                    PRIMARY ENTRY POINT NUMBER * 4
         B     &COM-&LBL.(R15)          GO TO COMMON ENTRY
&X       SETA  1
.ELOOP   ANOP
         SPACE 2
         ENTRY &EPS(&X)                 ALTERNATE ENTRY POINT
&EPS(&X) SAVE  (14,12),,*
.*       MVI   16(R13),&X*4             ENTRY POINT NUMBER * 4
         LA    R4,&X*4                  ENTRY POINT NUMBER * 4
&X1      SETA  &X+1                     X + 1
         AIF   (&X1 GT &N).EDONE        IF NEXT IS NULL, NO BRANCH
         B     &COM-&EPS(&X)(R15)       GO TO COMMON ENTRY
&X       SETA  &X+1                     NEXT ENTRY POINT
         AGO   .ELOOP                   PROCESS NEXT ENTRY
.EDONE   SPACE 2
&COM     BALR  &BASE(1),0               LOAD BASE REGISTER
&ADD     SETC  'TSE&SYSNDX.B'
&ADD     EQU   *                        PROGRAM BASE LOCATION
         USNGX &ADD,&BASE(1)            COMMON PROGRAM ADDRESSIBLITY
         AGO   .MULTENT                 JOIN COMMON
.ONEENT  USNGX &ADD,&BASE(1)            ESTABLISH PROGRAM
         LR    &BASE(1),R15             ADDRESSIBLITY
.MULTENT AIF   ('&BASE(2)' EQ '').NOBASE2
         LA    &BASE(2),4095(&BASE(1))  EXTEND PROGRAM ADDRESSIBLITY
         LA    &BASE(2),1(&BASE(2))     WITH 2ND PROGRAM BASE REGISTER
         USNGX &ADD+4096,&BASE(2)
         AIF   ('&BASE(3)' EQ '').NOBASE2
         MNOTE 8,'BASE REGISTER &BASE(3) WAS NOT ESTABLISHED'
         MNOTE 8,'ONLY 2 BASE REGISTERS ARE SUPPORTED'
.NOBASE2 LR    R5,R1                    SAVE PTR TO CPPL
         GETMAIN R,LV=TSDSECTL-TSDSECT+&GETMAIN,SP=&SP
         ST    R13,4(R1)                DO SAVE AREA CHAINING
         ST    R1,8(R13)
         LR    R13,R1                   ESTABLISH ADDRESSABILITY
         USNGX TSDSECT,R13              FOR THE TSDSECT
         MVC   CPPL(CPPLL),0(R5)        COPY CPPL TO TS AREA
         AIF   (NOT(&C OR &P OR &D OR &I OR &M)).L18A
         L     R1,CPPLUPT               GET PTR TO UPT
         L     R2,CPPLECT               GET PTR TO ECT
         LA    R3,TSECB                 GET PTR TO ECB
         SR    R0,R0                    CLEAR ECB
         ST    R0,TSECB
         AIF   (NOT &C).L14
         STM   R1,R3,CSPL               INITIALIZE CSPL
         ST    R0,CSFLG                 ZERO CSFLG
         LA    R0,CSFLG
         ST    R0,CSPLFLG
         LA    R0,CSOA
         ST    R0,CSPLOA
.L14     AIF   (NOT &P).L15
         STM   R1,R3,PPL                INITIALIZE PPL. UPT,ECT,ECB
         LA    R0,TSPARANS              ADRS OF PARSE ANSWER PLACE
         ST    R0,PPLANS                POINTER TO ADRS OF PARSE ANSWER
         ST    R13,PPLUWA               PARSE USER WORK AREA POINTER
         XC    TSPARANS(4),TSPARANS     TO AVOID DUPLICATE IKJRLSA
.L15     AIF   (NOT &D).L16
         STM   R1,R3,DAPL               INITIALIZE DAPL
         L     R0,CPPLPSCB              GET PTR TO PSCB
         ST    R0,DAPLPSCB              SET POINTER TO PSCB
.L16     AIF   (NOT &I).L17
         STM   R1,R3,IOPL               INITIALIZE IOPL
.L17     AIF   (NOT &M).L18A
         ST    R3,MPLECB                INITIALIZE MPL, PTR TO ECB
         LA    R0,CPPL                  ADDRESS OF CPPL
         ST    R0,MPLCPPL               PTR TO CPPL
         LA    R0,MPLCSECT              PTR TO MESSAGE CSECT
         ST    R0,MPLCSECP              PTR TO MESSAGE CSECT ADDRESS
         XC    MPLSW(MPLZL),MPLSW       INITIALIZE REMAINING MPL TO 0
.L18A    ANOP
&J       SETA  0
.L72L    ANOP
&J       SETA  &J+1
         AIF   ('&LOAD(&J)'  EQ  '').L72Z
         SPACE 2
         LOAD  EP=&LOAD(&J)
         ST    R0,&LOAD(&J)
         MNOTE *,'MODULE  &LOAD(&J) LOADED'
         AIF   ('&LOAD(&J)'  NE  'IKJDAIR').L72P
&GDAIR   SETB  1                        INDICATE DAIR LOADED
         AGO   .L72L
.L72P    AIF   ('&LOAD(&J)'  NE  'IKJPARS').L72L
&GPARSE  SETB  1                        PARSE WAS LOADED
&PARNAME SETC  'IKJPARS'
         AGO   .L72L
.L72Z    AIF   ('&PARSE(1)'   EQ '').L57K
         SPACE 2
***********************************************************************
*                                                                     *
*        PARSE THE COMMAND LINE                                       *
*                                                                     *
***********************************************************************
         SPACE 2
         TSPARSE CBUF=(CPPLCBUF,I),PCL=(=V(&PARSE(1)),I),              *
               SYNAD=&PARSE(2),ENTRY=&PARNAME
         MNOTE *,'COMMAND LINE WILL BE PARSED'
.L57K    AIF   ('&PARSE(2)' EQ '' AND '&EXIT' EQ '').L18
         B     TSE&SYSNDX
         AIF   ('&PARSE(2)'  EQ  '' OR &GPARSEM EQ 1).L57M
         SPACE 3
***********************************************************************
*                                                                     *
*        PARSE ERROR ANALYSIS SUBROUTINE                              *
*                                                                     *
***********************************************************************
         TSPARERR
         MNOTE  *,'PARSE ERROR ANALYSIS ROUTINE GENERATED'
&GPARSEM SETB  1                        PARSE ERROR ANALYSIS GENERATED
.L57M    AIF   ('&EXIT' EQ '').L58K
         SPACE 2
***********************************************************************
*                                                                     *
*        COMMAND PROCESSOR EXIT                                       *
*                                                                     *
***********************************************************************
        MNOTE *,' BRANCH TO &EXIT WITH RC IN R15 TO EXIT'
         SPACE 2
&EXIT(1) EXIT  RC=(15),LV=TSDSECTL-TSDSECT+&GETMAIN,SP=&SP
.L58K    SPACE 2
TSE&SYSNDX DS  0H
.L18     AIF   (&N EQ 0).L18W
         LR    R15,R4                   SET ENTRY POINT NUMBER * 4
         MNOTE *,' REGISTER 15 CONTAINS ENTRY POINT NUMBER * 4'
         SPACE
.L18W    MNOTE *,' THE FOLLOWING BASE REGISTERS HAVE BEEN ESTABLISHED'
         MNOTE *,' '
         MNOTE *,'         USING TSDSECT,R13'
         MNOTE *,'         USING &ADD,&BASE(1) '
         AIF   ('&BASE(2)' EQ '').L19
         MNOTE *,'         USING &ADD+4096,&BASE(2)'
.L19     SPACE 4
         MEND
         SPACE 5
         MACRO
&LBL     EXIT  &LV=72,&SP=1,&RC=0,&SVC3=NO
.*$MACRO=EXIT       DATE=04/00/79       SOURCE=UCLA
&LBL     LR    R1,R13                   SAVE FREEMAIN ADD
         L     R13,4(R13)               UNCHAIN
         AIF   ('&RC' EQ '&RC(1)').L0
         ST    &RC(1),16(R13)            SAVE RETURN CODE
.L0      ANOP
         FREEMAIN R,LV=&LV,A=(1),SP=&SP
         LM    R14,R12,12(R13)
         AIF   ('&RC' EQ '&RC(1)').L00
         AGO   .L2
.L00     AIF   ('&RC' EQ '0').L1
         LA    R15,&RC
         AGO   .L2
.L1      ANOP
         SR    R15,R15
.L2      AIF   ('&SVC3' NE 'YES').L3
         SVC   3
         MEXIT
.L3      ANOP
         BR    R14
         MEND
         TITLE 'C A L C  -  THE DRIVER FOR THE DESK CALCULATOR.'
         MACRO
         TSWORK
TPUTSAVE DS    5F                       REGISTER SAVE AREA
TGETLEN  DS    H                        LENGTH OF LAST TGET
         DS    H                        UNUSED
TMPMAC   TMPMAC MF=L                    REMOTE LIST FOR TMPMAC
TMPMACL  EQU   *-TMPMAC                 LENGTH OF THE LIST
CSTEMP   DS    F                        POINTER TO 4K
CALCFLAG DS    F
CSUSER   DS    26D
         DS    D
         DS    18F
         DS    F
         DS    F
CSSTOR   DS    900X
PFLAG    DS    X
         DS    3X
CARD     DS    (CHRMAX+5)X
PSTACK   DS    (FACTOR)X
         DS    0D
OUTSTAK  DS    144X
BUFF     EQU   CARD
         MEND
         SPACE 2
         MACRO
&LABEL   SETUP &FAKE
         AIF   ('&LABEL' EQ '').END
&LABEL   DS    0H
.END     MEND
         SPACE 2
*        ASSEMBLY PARAMETERS
LINEMAX  EQU   2                     THE MAXIMUM NUMBER OF LINES INPUT
FACTOR   EQU   LINEMAX*220+10
CHRMAX   EQU   LINEMAX*40            THE MAXIMUM NUMBER OF CHARS INPUT
         EJECT
CALC     TSENTRY BASE=R12,MACRO=YES,EXIT=EXIT,GETMAIN=4096,MAP=ECT
F0       EQU   0
F2       EQU   2
F4       EQU   4
F6       EQU   6
         EJECT
         XC    CALCFLAG(4),CALCFLAG
         XC    PFLAG(1),PFLAG           CLEAR FLAGS
         XC    CSUSER(250),CSUSER       CLEAR USER STORE
         XC    CSUSER+250(250),CSUSER+250   AND MORE...
         SPACE 2
         LA    R0,TSWORK                ADDRESS OF 4K GETMAINED  *WDD*
         ST    R0,CSTEMP                IN CSTEMP                *WDD*
         L     R0,=XL4'08260000'     INITILIZE SAVE STACK.
         ST    R0,CSSTOR             AT THIS POINT.
         SPIE  PROGERR,(12,15)          SET UP SPIE EXIT          *WDD*
         L     R1,CPPLECT               ADDRESS OF ECT            *WDD*
         TM    ECTSWS-ECT(R1),ECTNOPD   OPERANDS PRESENT          *WDD*
         BO    MAIN2                    NO                       *WDD*
         MVI   BUFF,X'03'               PRIME THE BUFFER         *WDD*
         MVC   BUFF+1(CHRMAX),BUFF      FOR 81 CHARACTERS        *WDD*
         L     R15,CPPLCBUF             POINTER TO CBUF          *WDD*
         LH    R1,0(R15)                LENGTH OF CBUF           *WDD*
         LH    R2,2(R15)                OFFSET TO OPERANDS
         AH    R2,=H'4'                 RELATIVE TO CBUF
         SR    R1,R2                    LENGTH OF OPERANDS
         BNP   MAIN2                                              *WDD*
         STH   R1,TGETLEN               SIMULATE THE TGET LENGTH  *WDD*
         LA    R15,0(R2,R15)            POINT AT OPERANDS         *WDD*
         BCTR  R1,0                     -1 FOR EXECUTE
         EX    R1,#MVC#
#MVC#    MVC   BUFF(0),0(R15)           == EXECUTED MVC ===
         LH    R1,TGETLEN
         B     MAIN3
         EJECT
         INUSE
MAIN2    EQU   *                     YES...
         L     R1,CPPLECT               ADDRESS OF ECT            *WDD*
         TM    ECTSWS-ECT(R1),ECTNOPD   OPERANDS PRESENT ?        *WDD*
         BZ    LEAVE                    ES  ... LEAVE
*WDD*    LA    R2,MSG                SET UP REG 2
         SETUP                       NOW THE HEADING.
         TPUTX 'CALC: ',ASIS         WAS'ENTER EQUATION;'
         SPACE 3
MAIN1    EQU   *                        WAITING FOR A REPLY.
         MVI   BUFF,X'03'
         MVC   BUFF+1(CHRMAX),BUFF      TOTAL OF 81 BYTES
         LA    R1,BUFF                  INPUT BUFFER ADDRESS
         LA    R0,CHRMAX-1              MAXIMUM LENGTH TO READ
         O     R1,=X'80000000'          INDICATE TGET
         TGET  (1),(0),R                GET A STRING
         SPACE 2
         BXH   R15,R15,MAIN2            ON ANY ERROR  OR ATTENTION
         LTR   R1,R1                    WAS ANYTHING READ ?
         BZ    MAIN2                    NO
         STH   R1,TGETLEN               LENGTH OF STRING
         SPACE
MAIN3    LA    R15,BUFF                 FOLD THE INPUT TO UPPER CASE
UPPERL   OI    0(R15),X'40'             FOLD THIS CHARACTER
         LA    R15,1(R15)               POINT TO NEXT CHARACTER
         BCT   R1,UPPERL                LOOP FOR STRING LENGTH
         EJECT
         INUSE
         CLC   BUFF(6),=C'POLISH'    HOW ABOUT POLISH....
         BE    POLISHF               YES...
         CLC   BUFF(6),=C'RESUME'    DID HE SAY RESUME...
         BE    RESUME                YES...
         CLC   BUFF(3),=C'END'
         BE    LEAVE                 YES...
         CLC   BUFF(4),=C'AUTO'
         BE    AUTO
         CLC   BUFF(3),=C'DO '       DID HE SAY DO    ...         *WDD*
         BE    DO                    YES...                       *WDD*
         CLC   BUFF(4),=C'HELP'      DID HE SAY HELP  ...         *WDD*
         BE    HELP                  YES...                       *WDD*
         CLI   BUFF,C'?'                ? ENTERED                 *WDD*
         BNE   NOSUBCMD                 NO                        *WDD*
         SPACE 2
         TPUTX 'ENTER AN EQUATION, SUBCOMMAND OR END'             *WDD*
         B     MAIN2                                              *WDD*
POLISHF  OI    PFLAG,X'01'
         B     MAIN2
RESUME   NI    PFLAG,X'FE'              TURN OFF POLISH
         B     MAIN2
AUTO     XI    CALCFLAG,B'10000000'
         B     MAIN2
LEAVE    XR    R15,R15                  ZERO RETURN CODE
         B     EXIT                     AND EXIT
         EJECT
NOSUBCMD XC    OUTSTAK(8),OUTSTAK    CLEAR OUTPUT AREA FOR US.
         LA    R1,BUFF               GET THE ADDRESS OF THE BUFFER.
         LR    R2,R1                 IN BOTH PLACES.
         ZGPR  R0                    CLEAR SOME GPR'S
         ZGPR  R3                    ...
         ZGPR  R8                    ...
         ZGPR  R9                    ...
         LA    R4,X'03'              GET A CURSOR.                  SSL
         LA    R5,X'15'              AND OTHER CHARACTERS.
         LA    R6,X'7F'              ...
         LA    R7,X'40'              ...
LOOP1    IC    R0,0(R1)              GET EACH CHARACTER
         CR    R0,R4                 AND GO AROUND THE STORE IF
         BE    FOUND                 IT BELONGS TO THE SPECIAL
         CR    R0,R5                 GROUP.
         BE    ADD                   ...
         CR    R0,R6                 ...
         BE    ADD                   ...
         CR    R0,R7                 ...
         BE    ADD                   ...
         STC   R0,0(R2,R3)           OK. STORE THE CHARACTER.
         ADDG  R3,1                  ADD ONE TO THE COUNT.
         C     R3,=A(CHRMAX+1)
         BE    CALC$ERO              YES...
         ADDG  R8,1                  ADD ONE TO POSITIONAL COUNT.
         C     R8,=F'40'             IS IT AT 40...
         BL    ADD                   NO
         ZGPR  R8                    YES, ZERO IT...
         ADDG  R9,1                  ADD ONE TO THE LINE COUNT.
ADD      ADDG  R1,1                  ADD ONE TO INPUT LOC.
         B     LOOP1                 GO BACK.
FOUND    C     R3,=F'0'              NO COUNT OF CHARACTERS...
         BE    MAIN2                 YES...                      *WDD*
         TM    CALCFLAG,B'10000000'
         BZ    NOUSE
         LA    R1,0(R2,R3)
         S     R3,=F'1'
         LA    R15,0(R2,R3)
         CLI   R0(R15),C':'
         BE    NOPRT
         CLI   0(R15),C';'
         BE    NOPRT
         MVC   0(5,R1),USEITT
         LA    R3,6(R3)
         LA    R14,5
         B     NOUSEA
NOPRT    MVC   0(4,R1),USEITT+1
         LA    R3,5(R3)
         LA    R14,4
NOUSEA   LA    R8,0(R14,R8)
         C     R8,=F'40'
         BL    NOUSE
         S     R8,=F'40'
         ADDG  R9,1
NOUSE    EQU   *
         LA    R0,38                 SET UP LAST CHARACTER
         STC   R0,0(R2,R3)           STORE IT
         L     R15,CSTEMP
         USNGX STACKS,R15
         LA    R1,TS1
         ST    R1,A1T1
         ST    R1,A2T1