         MACRO
&NAME    DOCELLS
         GBLA   &XSAVEX
         GBLC   &XSAVE(200)
         LCLA   &COUNTER
&COUNTER SETA   1
.LOOP1   ANOP
         AIF    (&COUNTER GT &XSAVEX).DONE
&XSAVE(&COUNTER)   DS   F
&COUNTER SETA   &COUNTER+1
         AGO    .LOOP1
.DONE    ANOP
&XSAVEX  SETA   0
         MEND
