         MACRO
&NAME    FINISH    &END,&USERMOD=
         GBLC  &XSECT
         AIF   ('&XSECT' EQ '').FIN02
         AIF   ('&XSECT' EQ '&SYSECT').FIN05
&XSECT   CSECT
         AGO   .FIN05
.FIN02   ANOP
         DC    C'   &SYSECT ASSEMBLED ON &SYSDATE AT &SYSTIME'
.FIN03   ANOP
         AIF   ('&USERMOD' EQ '').FIN04
         DC    C' FROM &SYSPARM'
         DC    C' BY USERMOD &USERMOD   '
         AGO   .FIN05
.FIN04   ANOP
         DC    C' FROM &SYSPARM   '
.FIN05   ANOP
         AIF    ('&NAME' EQ '').FIN06
&NAME    DS    0H
.FIN06   ANOP
         AIF   ('&END' EQ 'NO').FIN07
         END
.FIN07   ANOP
         MEND
