         MACRO
&NAME              ISAMCSA
ISAMCSA_HEADER     DSECT
ISAMCSA_LENGTH     DS    F
ISAMCSA_ICATPTR    DS    F
ISAMCSA_TBLSTART   DS    F
ISAMCSA_TBLSTOP    DS    F
ISAMCSA_ICATDS     DSECT
ISAMCSA_ICATCHER   DS    CL7'ISAMCSA'
ISAMCSA_TABLEDS    DSECT
ISAMCSA_LPDEADDR   DS    F
ISAMCSA_LPDENTRY   DS    CL40
ISAMCSA_NXTENTRY   EQU   *
         MEND
