                   MACRO
&NAME              PACDIR     &DSECT=NO,&PREFIX=DIR
                   AIF   ('&DSECT' EQ 'NO').NODSECT
                   AIF   ('&NAME' EQ '').SETDS
&NAME              DSECT
                   AGO   .RECORD_LAYOUT
.SETDS             ANOP
DIRECTORY_DSECT    DSECT
                   AGO   .RECORD_LAYOUT
.NODSECT           ANOP
                   AIF   ('&NAME' EQ '').ALIGN
&NAME              DS    0F
                   AGO   .RECORD_LAYOUT
.ALIGN             ANOP
                   DS    0F
.RECORD_LAYOUT     ANOP
&PREFIX._NAME      DS    CL8      MEMBER NAME
&PREFIX._BLOCKLEN  EQU   &PREFIX._NAME,2    LENGTH OF DIRECTORY BLOCK
&PREFIX._TTRP      DS    CL3      RELATIVE ADDRESS OF START OF MEMBER
&PREFIX._INDC      DS    C        ADDITIONAL INFORAMTION
*                                 BIT 0 - IF ON, ENTRY IS AN ALIAS
*                                 BITS 1 & 2 - NUMBER OF POINTERS TO
*                                              LOCATIONS WITHIN THE
*                                              MEMBER
*                                 BITS 3-7 - NUMBER OF HALFWORDS OF
*                                            USER DATA IN THIS ENTRY
*
&PREFIX._TTRT      DS    CL3      TTR OF FIRST BLOCK OF TEXT
&PREFIX._FILLER1   DS    C
&PREFIX._TTRN      DS    CL3      TTR OF NOTE LIST
&PREFIX._FILLER2   DS    C
&PREFIX._ATR       DS    0CL2     ATTRIBUTE BYTES
&PREFIX._ATR1      DS    C
*                                 BIT 0 - REENTRANT
*                                 BIT 1 - REUSABLE
*                                 BIT 2 - OVERLAY STRUCTURE
*                                 BIT 3 - MODULE TO BE TESTED
*                                 BIT 4 - ONLY LOADABLE
*                                 BIT 5 - SCATTER FORMAT
*                                 BIT 6 - EXECUTABLE
*                                 BIT 7 - IF ON, MODULE CONTAINS NO RLD
*                                         ITEMS AND ONLY ONE TEXT BLOCK
&PREFIX._ATR2      DS    C
*                                 BIT 7 - REFRESHABLE MODULE
&PREFIX._STOR      DS    CL3      TOTAL CONTIGUOUS MAIN STORAGE
*                                 REQUIREMENT OF MODULE
&PREFIX._FTBL      DS    CL2
&PREFIX._EPA       DS    CL3
&PREFIX._FTB0      DS    0CL3
&PREFIX._FTB1      DS    C
*                                 BIT 2 - PAGE ALIGNMENT REQUIRED FOR
*                                         LOAD MODULE
&PREFIX._FTB2      DS    C
*                                 BIT 3 - LOAD MODULE RMODE
*                                 BITS 4-5 - ALIAS ENTRY PONT AMODE
&PREFIX._FTB3      DS    C
&PREFIX._SLSZ      DS    CL2
&PREFIX._TTSZ      DS    CL2
&PREFIX._ESDT      DS    CL2
&PREFIX._ESDC      DS    CL2
&PREFIX._EPM       DS    CL3
&PREFIX._MNM       DS    CL8
&PREFIX._SSIWD     DS    0CL4
&PREFIX._CHLVL     DS    C
&PREFIX._SSIFB     DS    C
&PREFIX._MBRSN     DS    CL2
&PREFIX._APF       DS    0CL2
&PREFIX._APFCT     DS    C
&PREFIX._APFAC     DS    C
                   MEND
