         MACRO
&NAME    SAVEAREA   &LTORG=YES
         GBLA  &XSAVEX,&XPAGE
         GBLC  &XRENT
         GBLC  &XSECT
         GBLC  &XSTACK
         GBLC  &XBASE2
         GBLC  &XBASE3
         LCLA  &LPAGE
         LCLC  &PAGE
         LCLA  &BASECT
         AIF   ('&XBASE2' NE '').START01
&BASECT  SETA  1
         AGO   .START03
.START01 ANOP
         AIF   ('&BASE3' NE '').START02
&BASECT  SETA  2
         AGO   .START03
.START02 ANOP
&BASECT  SETA  3
.START03 ANOP
         AIF   ('&XRENT' EQ 'YES'        OR                            +
               '&LTORG'  EQ 'NO').NOLTORG
         LTORG
.NOLTORG ANOP
         AIF   ('&XRENT' EQ 'YES').RENT
         ORG   &XSECT.+&BASECT.*4096
&XSECT._STORAGE    DS    9D
         AGO   .NORENT
.RENT    ANOP
&XSECT._STORAGE    DSECT
                   DS    9D
.NORENT  ANOP
         SAVEGPRS
         AIF   (&XSAVEX EQ 0 OR '&XSTACK' EQ 'YES').NOCELLS
         DOCELLS
.NOCELLS ANOP
         AIF  (&XPAGE EQ 0).NOPAGE
&LPAGE   SETA 1
.LOOP99  ANOP
         AIF  (&LPAGE LT 10).LOOP99A
&PAGE    SETC 'PAGE'.'&LPAGE'.'_ADDRESS'
         AGO  .LOOP99B
.LOOP99A ANOP
&PAGE    SETC 'PAGE0'.'&LPAGE'.'_ADDRESS'
.LOOP99B ANOP
&PAGE              DS    A
&LPAGE   SETA &LPAGE+1
         AIF  (&LPAGE LE &XPAGE).LOOP99
.NOPAGE  ANOP
         MEND
