         MACRO
&NAME    SAVEGPRS
         LCLA   &LX
&LX      SETA   0
.LXLOOP  ANOP
         AIF    (&LX EQ 16).GETOUT
SAVE_GPR&LX    DS    A
&LX      SETA   &LX+1
         AGO    .LXLOOP
.GETOUT  ANOP
         MEND
