         MACRO                                                          TOP 0000
&NAME    TOP                                                            TOP 0010
         GBLC  &SRR,&XSAVE(200),&BALREG,&XSTACK                         TOP 0020
         GBLA  &XSAVEX                                                  TOP 0030
         GBLB  &TOPSET                                                  TOP 0030
         GBLB  &DOREGF                                                  TOP 0040
         STRCHECK   BOT                                                 TOP 0060
&DOREGF  SETB  0                                                        TOP 0070
&TOPSET  SETB  1                                                        TOP 0080
&NAME    DS    0H                                                       TOP 0090
         AIF   ('&XSTACK' EQ 'YES').USEBAKR
&XSAVEX  SETA  &XSAVEX+1
&XSAVE(&XSAVEX)   SETC   'SAVEREG_&SYSNDX'
         ST    &BALREG,&XSAVE(&XSAVEX)                                  TOP 0090
         MEXIT
.USEBAKR   ANOP
         BAKR  R14,R0
         MEND                                                           TOP 0110
