         MACRO
&NAME    DDDMVC &PARMS=,&RETURN=
         MVC   PARMLIST,ALOBLOCK-20
&NAME    LINK  EP=IKJEFF18,            INVOKE DAIRFAIL TO ISSUE WTP    *
               PARAM=(,ALOBLOCK-4,=F'0',=X'C032',=F'0',&RETURN),       *
               VL=1,MF=(E,&PARMS)
         MEND
