         MACRO
&NAME    REGS
         LCLA  &I
&I       SETA  0
.LUP     ANOP
R&I      EQU   &I
&I       SETA  &I+1
         AIF   (&I LE 15).LUP
         MEND
