         MACRO
&NAME    RETRN &RC=
&NAME    L     13,4(0,13)     PICK UP THE OLD SAVE AREA ADDRESS
         AIF   ('&RC' EQ '(R15)').GOTRC
         LM    14,15,12(13)   RESTORE THE REGS. 14,15
         LM    2,12,28(13)    RESTORE THE REGS. 2,3,...,12
         MVI   12(13),X'FF'   SET RETURN INDICATION
         AIF   (T'&RC EQ 'O').NORC
         AIF   ('&RC' LT '4096').RCOK
         MNOTE 1,'RETURN CODE RC=&RC IS > 4095, RC IGNORED'
         AGO   .NORC
.GOTRC   L     14,12(,13)     RESTORE REG 14
         LM    2,12,28(13)    RESTORE THE REGS 2,3,...,12
         MVI   12(13),X'FF'   SET RETURN INDICATION
         BR    14             RETURN
         MEXIT
.RCOK    LA    15,&RC.(0,0)   LOAD RETURN CODE
.NORC    BR    14             RETURN
*
*  REGISTERS 2-15 RESTORED PER STANDARD LINKAGE CONVENTIONS.
*
         MEND
