)ATTR
 _ TYPE(INPUT) INTENS(LOW) CAPS(ON)
 $ TYPE(INPUT) INTENS(HIGH) CAPS(ON)
 @ TYPE(OUTPUT) INTENS(HIGH)
 , TYPE(INPUT) INTENS(NON)  CAPS(ON)
)BODY LMSG(LMSG)
%-----------------------------  UNITNAME PANEL  -------------------------------
%COMMAND ===>$ZCMD
@LMSG
+
+  Unit names only ===>$NAMES+
+
+  Erase the word%NAMES+if you want the full display
+
+
+
+
)INIT
&NAMES = 'NAMES'
&ZCMD = ' '
.CURSOR = NAMES
)PROC
IF (&NAMES ¬= ' ')
  VER (&NAMES,NONBLANK,LIST,NAMES)
)END
