++USERMOD(NAPIP09) .
++ VER(Z038) FMID(HDV2302) .
++ MAC(ISRUDA2).
)ATTR
  ¬ TYPE(INPUT) INTENS(NON)
)BODY
%----------------------------  DATA SET UTILITY  -------------------------------
%OPTION  ===>_ZCMD                                                             +
%
%   A+- Allocate new data set                %C+- Catalog data set
%   R+- Rename entire data set               %U+- Uncatalog data set
%   D+- Delete entire data set               %S+- Data set information (short)
%   blank+- Data set information
+
+ISPF LIBRARY:
+   PROJECT%===>_PRJ0    +
+   GROUP  %===>_LIB0    +
+   TYPE   %===>_TYP0    +
+
+OTHER PARTITIONED OR SEQUENTIAL DATA SET:
+   DATA SET NAME %===>_DSN                                                    +
+   VOLUME SERIAL %===>_VOL   +  (If not cataloged, required for option "C")
+
+DATA SET PASSWORD%===>¬PSWD    +(If password protected)
)INIT
  .HELP = ISR32000
  &ZCMD = TRANS(&OPT N,R E,D I,' ' V,U *,*)
  IF ( &DSN = ' ' )
    &VOL = &Z
  IF ( &DSN ¬= ' ' )
    .CURSOR = ZCMD
  IF ( .CURSOR = ' ' )
    .CURSOR = ZCMD
)PROC
  &OPT = TRANS(&ZCMD N,# E,# I,# V,# R,N D,E ' ',I U,V *,*)
  VER(&OPT,LIST,A,N,E,I,C,V,S)
  &X = TRUNC(&ZUSER,3)                /* Lighting change      */
  IF ( &OPT = C )
    VER(&VOL,NB)
  IF ( &OPT = V )
    .MSG = LGTM010L                   /* Lighting restriction */
  /*  IF (&VOL ¬= ' ' )                  Lighting restriction */
  /*      .MSG = ISRU230                 Lighting restriction */
  IF ( &DSN = ' ' )
    VER(&PRJ0,NB)
    VER(&LIB0,NB)
    VER(&TYP0,NB)
    IF ( &OPT ¬= C )
      IF (&VOL ¬= ' ' )
        .MSG = ISRU232
    ELSE                              /* Lighting restriction */
      IF (&X ¬= 'FCH')                /* Lighting restriction */
        IF (&PRJ ¬= &ZUSER)           /* Lighting restriction */
          .MSG = LGTM010M             /* Lighting restriction */
        if (&VOL ¬= 'TEST07')         /* Lighting restriction */
          .MSG = LGTM010N             /* Lighting restriction */
  ELSE                                /* Lighting change      */
    VER (&DSN,DSNAME)                 /* Lighting change      */
    IF (&X ¬= 'FCH')                  /* Lighting restriction */
      IF (&OPT = 'C')                 /* Lighting restriction */
        &Y = TRUNC(&DSN,1)            /* Lighting restriction */
        IF (&Y = '''')                /* Lighting restriction */
          &W = .TRAIL                 /* Lighting restriction */
          &Y = TRUNC(&W,6)            /* Lighting restriction */
          IF (&Y ¬= &ZUSER)           /* Lighting restriction */
            .MSG = LGTM010M           /* Lighting restriction */
        IF (&VOL ¬= 'TEST07')         /* Lighting restriction */
           .MSG = LGTM010N            /* Lighting restriction */
  VPUT ( PRJ0 LIB0 TYP0 ) PROFILE
)END
 /* Lighting change NAPIP09 to restrict non tech services users to  */
 /*     to cataloguing on TEST07 and then only data sets with their */
 /*     user-id as high level index and require ALL users to use    */
 /*     3.4 for uncatalog to obtain a confirm function (and         */
 /*     restrict non-tech services to tapes with their user-id)     */
