         MACRO
&NAME    BASSM &OP1,&OP2
&NAME    DC    Y(X'0C00'+16*&OP1+&OP2)
         MEND
