         MACRO
&NAME    BSM   &OP1,&OP2
&NAME    DC    Y(X'0B00'+16*&OP1+&OP2)
         MEND
