         MACRO
&SYMBOL  XPREJECT  &WA,&COND=
.* MACRO TO EXECUTE AN EJECT CALL TO 'XPRNTSUB'.
         LCLC  &TAG,&SYM,&OPT,&R
         LCLA  &K
&SYM     SETC  '&SYMBOL'
&TAG     SETC  'IHB&SYSNDX'
         CNOP  2,4
.TST1    AIF   ('&COND' NE '').TST2
&OPT     SETC  'F000'
         AGO   .SIMPLE
.TST2    AIF   ('&COND' NE 'ATHOF').TSTC
&OPT     SETC  'F100'
.SIMPLE  ANOP
&SYM     BAL   1,&TAG.L                LOAD PARM ADDRESS
         DC    XL2'&OPT'               OPTION BITS
         AGO   .VCON
.TSTC    AIF   ('&COND(1)' NE 'EQ').NE
&OPT     SETC  '80'
.NE      AIF   ('&COND(1)' NE 'NE').LT
&OPT     SETC  '70'
.LT      AIF   ('&COND(1)' NE 'LT').GT
&OPT     SETC  '40'
.GT      AIF   ('&COND(1)' NE 'GT').LE
&OPT     SETC  '20'
.LE      AIF   ('&COND(1)' NE 'LE').GE
&OPT     SETC  'C0'
.GE      AIF   ('&COND(1)' NE 'GE').NOT
&OPT     SETC  'A0'
.NOT     AIF   ('&OPT' NE '').COK
         MNOTE 4,'COND OPERAND &COND(1) ILLEGAL'
.COK     AIF   ('&COND(2)' NE '').C2OK
         MNOTE 4,'COND TEST QUANTITY MISSING'
         AGO   .NOTREG
.C2OK    AIF   ('&COND(2)'(1,1) NE '(').NOTREG
&K       SETA  K'&COND(2)-2
&R       SETC  '&COND(2)'(2,&K)
&SYM     STC   &R,&TAG.A               STORE INTO PARM LIST
&SYM     SETC  ''
.NOTREG  ANOP
&SYM     BAL   1,&TAG.L                LOAD PARM ADDRESS
         DC    XL1'&OPT'               CONDITION MASK
         AIF   ('&COND(2)' EQ '').NOTREG2
         AIF   ('&COND(2)'(1,1) NE '(').NOTREG2
&TAG.A   DC    AL1(0)                  TEST QUANTITY
         AGO   .VCON
.NOTREG2 DC    AL1(&COND(2))           TEST QUANTITY
.VCON    ANOP
&TAG.L   XPRINNRA  &WA,92
         MEND
