         MACRO
&NAME    ##RWREG &REG
.*--------------------------------------------------------------------*
.*
.*  (C) COPYRIGHT 1983.  CLEMSON UNIVERSITY COMPUTER CENTER.
.*
.*  MACRO      ##RWREG
.*
.*  TITLE      CLEMSON UNIVERSITY COMPUTER CENTER STRUCTURED
.*             PROGRAMMING MACROS - ##RWREG
.*
.*  PURPOSE    INTERNAL MACRO USED TO RESTORE A WORK REGISTER FROM
.*             THE SMWA.
.*
.*  NOTE       SEE THE FOLLOWING DOCUMENT FOR MORE INFORMATION ON
.*             THIS AND OTHER STRUCTURED PROGRAMMING MACROS:
.*
.*             . CLEMSON UNIVERSITY COMPUTER CENTER STRUCTURED
.*               PROGRAMMING MACROS USER'S GUIDE AND REFERENCE.
.*
.*  ACTIVITY   11/01/83 - NEW  MGG
.*
.*--------------------------------------------------------------------*
         GBLC  &#PBSMWA                 TAG OF SMWA
         AIF   ('&#PBSMWA' NE '').PRC0100
&NAME    DS    0H
         MEXIT
.PRC0100 ANOP
&NAME    L     &REG,&#PBSMWA            RESTORE WORK REGISTER
         MEND
