         MACRO
&NAME    ##SWREG &REG
.*--------------------------------------------------------------------*
.*
.*  (C) COPYRIGHT 1983.  CLEMSON UNIVERSITY COMPUTER CENTER.
.*
.*  MACRO      ##SWREG
.*
.*  TITLE      CLEMSON UNIVERSITY COMPUTER CENTER STRUCTURED
.*             PROGRAMMING MACROS - ##SWREG
.*
.*  PURPOSE    INTERNAL MACRO USED TO GENERATE CODE TO SAVE A WORK
.*             REGISTER IN THE SMWA.
.*
.*  NOTE       SEE THE FOLLOWING DOCUMENT FOR MORE INFORMATION ON
.*             THIS AND OTHER STRUCTURED PROGRAMMING MACROS:
.*
.*             . CLEMSON UNIVERSITY COMPUTER CENTER STRUCTURED
.*               PROGRAMMING MACROS USER'S GUIDE AND REFERENCE.
.*
.*  ACTIVITY   11/01/83 - NEW  MGG
.*
.*--------------------------------------------------------------------*
         GBLC  &#PBSMWA                 TAG OF SMWA
         AIF   ('&#PBSMWA' NE '').PRC0100
         MNOTE 8,'SMWA= keyword if required on the program block macro $
               to support this function'
&NAME    DS    0H
         MEXIT
.PRC0100 ANOP
&NAME    ST    &REG,&#PBSMWA            SAVE WORK REGISTER
         MEND
