         MACRO
&NAME    DS
.*--------------------------------------------------------------------*
.*
.*  (C) COPYRIGHT 1991.  CLEMSON UNIVERSITY COMPUTER CENTER.
.*
.*  MACRO      DS
.*
.*  TITLE      CLEMSON UNIVERSITY COMPUTER CENTER STRUCTURED
.*             PROGRAMMING MACROS - DS
.*
.*  PURPOSE    MACRO USED TO REPLACE DS OPCODE WITH AN ASSOCIATED
.*             MACRO.
.*
.*  NOTE       SEE THE FOLLOWING DOCUMENT FOR MORE INFORMATION ON
.*             THIS AND OTHER STRUCTURED PROGRAMMING MACROS:
.*
.*             . CLEMSON UNIVERSITY COMPUTER CENTER STRUCTURED
.*               PROGRAMMING MACROS USER'S GUIDE AND REFERENCE.
.*
.*  ACTIVITY    8/06/91 MGG - NEW
.*
.*--------------------------------------------------------------------*
         GBLC  &VDA__DS
&CTR     SETA  N'&SYSLIST               GET NUMBER OF POSITIONAL PARMS
&NAME    &VDA__DS &SYSLIST(1),&SYSLIST(2),&SYSLIST(3),&SYSLIST(4),     +
               &SYSLIST(5),&SYSLIST(6),&SYSLIST(7),&SYSLIST(8),        +
               &SYSLIST(9),&SYSLIST(10),&SYSLIST(11),&SYSLIST(12),     +
               &SYSLIST(13),&SYSLIST(14),&SYSLIST(15),&SYSLIST(16),    +
               &SYSLIST(17),&SYSLIST(18),&SYSLIST(19),&SYSLIST(20),    +
               &SYSLIST(21),&SYSLIST(22),&SYSLIST(23),&SYSLIST(24),    +
               &SYSLIST(25),&SYSLIST(26),&SYSLIST(27),&SYSLIST(28),    +
               &SYSLIST(29),&SYSLIST(30),&SYSLIST(31),&SYSLIST(32),    +
               &SYSLIST(33),&SYSLIST(34),&SYSLIST(35),&SYSLIST(36),    +
               &SYSLIST(37),&SYSLIST(38),&SYSLIST(39),&SYSLIST(40),    +
               &SYSLIST(41),&SYSLIST(42),&SYSLIST(43),&SYSLIST(44),    +
               &SYSLIST(45),&SYSLIST(45),&SYSLIST(47),&SYSLIST(48),    +
               &SYSLIST(49),&SYSLIST(50),N=&CTR
         MEND
