* *-------------------------------------------------------------------*
* * Define TRT condition name.  Do a Translate and Test and check the
* * result.
* *     FORM: (%TRT,op1,cond,op2)
* *       EX: (%TRT,PWAFIELD,NE,PSDVALID)
* *-------------------------------------------------------------------*
  DEFUCOND NAME=TRT,MACRO=TRT_UCOND   |
         MACRO                        |
&NAME    TRT_UCOND &EXPR,&S=,&F=,&L=  |
         AIF (N'&EXPR NE 4).ERR0001   |
&NAME    TRT   &EXPR(2),&EXPR(4)      | Do TRT instruction.
         ##COND &EXPR(3),             |                                +
               S=&S,F=&F,L=&L         |
         MEXIT                        |
.ERR0001 MNOTE 8,'Too many parameters in %TRT expr'
         MEND                         |
* *-------------------------------------------------------------------*
* * Define EXI condition name.  EXecute an instruction and test the
* * resulting condition code.
* *     FORM: (%EXI,op1,op2,cond)
* *       EX: (%EXI,R1,(CLC,PWASTUFF,0(R3)),EQ)
* *-------------------------------------------------------------------*
  DEFUCOND NAME=EXI,MACRO=EXI_UCOND   |
         MACRO                        |
&NAME    EXI_UCOND &EXPR,&S=,&F=,&L=  |
         AIF (N'&EXPR NE 4).ERR0001   |
&NAME    EXI   &EXPR(2),&EXPR(3)      | Call EXI macro.
         ##COND &EXPR(4),             |                                +
               S=&S,F=&F,L=&L         |
         MEXIT                        |
.ERR0001 MNOTE 8,'Too many parameters in %EXI expr'
         MEND                         |
* *-------------------------------------------------------------------*
* * Define L32 user cond name.  Load a register with a full word value
* * and check the result of the load.
* *     FORM: (%L32,op1,op2,cond)
* *       EX: (%L32,R1,XYZADDR,NZ)
* *-------------------------------------------------------------------*
  DEFUCOND NAME=L32,MACRO=L32_UCOND
         MACRO
&NAME    L32_UCOND &EXPR,&S=,&F=,&L=
         AIF (N'&EXPR NE 4).ERR0001   |
&NAME    L32   &EXPR(2),&EXPR(3)      | Load address of token value.
         ##COND &EXPR(4),             |                                +
               S=&S,F=&F,L=&L         |
         MEXIT                        |
.ERR0001 MNOTE 8,'Incorrect number of parameters in %L32 expr'
         MEND                         |
* *-------------------------------------------------------------------*
* * Define L16 user cond name.  Load a register with a half-word value
* * and check the result of the load.
* *     FORM: (%L16,op1,op2,cond)
* *       EX: (%L16,R1,XYZADDR,NZ)
* *-------------------------------------------------------------------*
  DEFUCOND NAME=L16,MACRO=L16_UCOND
         MACRO
&NAME    L16_UCOND &EXPR,&S=,&F=,&L=
         AIF (N'&EXPR NE 4).ERR0001   |
&NAME    L16   &EXPR(2),&EXPR(3)      | Load address of token value.
         ##COND &EXPR(4),             |                                +
               S=&S,F=&F,L=&L         |
         MEXIT                        |
.ERR0001 MNOTE 8,'Incorrect number of parameters in %L16 expr'
         MEND                         |
