         MACRO
&NAME    TREG  ,                        TEST REGISTER MACRO
.*--------------------------------------------------------------------*
.*
.*  (C) COPYRIGHT 1983.  CLEMSON UNIVERSITY COMPUTER CENTER.
.*
.*  MACRO      TREG
.*
.*  TITLE      CLEMSON UNIVERSITY COMPUTER CENTER STRUCTURED
.*             PROGRAMMING MACROS - TREG
.*
.*  PURPOSE    MACRO USED TO TEST A REGISTER.
.*
.*  NOTE       SEE THE FOLLOWING DOCUMENT FOR MORE INFORMATION ON
.*             THIS AND OTHER STRUCTURED PROGRAMMING MACROS:
.*
.*             . CLEMSON UNIVERSITY COMPUTER CENTER STRUCTURED
.*               PROGRAMMING MACROS USER'S GUIDE AND REFERENCE.
.*
.*  ACTIVITY   11/01/83 - NEW  MGG
.*
.*--------------------------------------------------------------------*
         AIF   (N'&SYSLIST NE 1).ERR0001
&NAME    LTR   &SYSLIST(1),&SYSLIST(1)  TEST REGISTER
         MEXIT
.ERR0001 MNOTE 8,'TREG macro can have one and only one operand'
         MEND
