         MACRO
&NAME    CLEAR &FIELD,&CHAR,&LENGTH
         LCLC  &FILL,&L
&L       SETC  'L'''
&FILL    SETC  '&CHAR'
         AIF   ('&CHAR' NE '').CHSPEC
&FILL    SETC  '40'
.CHSPEC  ANOP
&NAME    MVI   &FIELD,X'&FILL'   SET THE FIRST POSITION
         AIF   ('&LENGTH' EQ '').NOLSPEC
         MVC   &FIELD+1(&LENGTH),&FIELD  FILL THE ENTIRE FIELD
         MEXIT
.NOLSPEC ANOP
         MVC   &FIELD+1(&L&FIELD-1),&FIELD  FILL THE ENTIRE FIELD
         MEND
