         PRINT OFF
**************************************************************
*  THIS MEMBER IS USED BY THE PRCBJCL JOB STREAM.            *
*                                                            *
*  DO NOT CHANGE ANYTHING HERE !!!                           *
**************************************************************
PRINT#   OPSYN PRINT
EQU#     OPSYN EQU
*
         MACRO
         PRINT &OP
         MEND
*
         MACRO
&NAME    EQU   &A,&B,&C
         AIF   ('&A' EQ '*').SUBST
         AIF   ('&B&C' EQ '').NOBC
         AIF   ('&C' EQ '').NOC
.*
&NAME    EQU#  &A,&B,&C
         MEXIT
.*
.NOC     ANOP
&NAME    EQU#  &A,&B
         MEXIT
.*
.NOBC    ANOP
&NAME    EQU#  &A
         MEXIT
.*
.SUBST   ANOP
&NAME    DS    0C
         MEXIT
.*
         MEND
         PRINT# ON
