)ATTR
 % TYPE(TEXT)  CAPS(OFF)
 + TYPE(TEXT)  INTENS(LOW)   CAPS(OFF)  COLOR(WHITE) SKIP(ON)
 ¦ TYPE(TEXT)  CAPS(OFF)  COLOR(GREEN)
 ! TYPE(TEXT)  CAPS(OFF)  COLOR(YELLOW)
 @ TYPE(OUTPUT) INTENS(LOW) CAPS(OFF)  COLOR(TURQ) JUST(RIGHT)
 " TYPE(OUTPUT) JUST(ASIS) HILITE(REVERSE) COLOR(GREEN)
 Ï TYPE(OUTPUT) JUST(RIGHT) HILITE(REVERSE) COLOR(RED)
 Ì TYPE(OUTPUT) JUST(RIGHT) HILITE(REVERSE) COLOR(BLUE)
 # TYPE(INPUT)            COLOR(YELLOW)
 ¢ TYPE(TEXT)  JUST(ASIS) HILITE(REVERSE) COLOR(YELLOW)
)BODY WINDOW(35,12) EXPAND(``)
%`-`¢VIEW Option Panel%`-`
+
+ Opt ....... #Z+
!
!  0. ¦No Filter
!  1. ¦STC only
!  2. ¦TSU only
!  3. ¦BATCH only
!  4. ¦Job prefix+==> #JOBSEL  +
!
¦ PF3-Cancel
)INIT
 .ZVARS = '(OPT)'
 .CURSOR = OPT
 &OPT = ''
 &JOBSEL = '________'
)PROC
   VER (&OPT,NB,LIST,0,1,2,3,4)
   IF (&JOBSEL = '________')
      &JOBSEL = ''
   IF (&OPT = 4)
      VER (&JOBSEL,NB)
   IF (&OPT = 0)
      &JOBFLTR = ''
   IF (&OPT = 1)
      &JOBFLTR = 'STC'
   IF (&OPT = 2)
      &JOBFLTR = 'TSU'
   IF (&OPT = 3)
      &JOBFLTR = 'BAT'
   IF (&OPT = 4)
      &JOBFLTR = 'JOB'
)END
