         MACRO
&NAME    SETMODE &P1,&R=R15
         AIF   ('&P1' EQ '24').OK24
         AIF   ('&P1' EQ '31').OK31
         MNOTE 8,'NOT CORRECT MODE'
         MEXIT
.OK24    ANOP
         L     &R,=A(A&SYSNDX)     .   GET NEXT SEQUENTIAL ADDR
         N     &R,=X'7FFFFFFF'     .   DO NOT USE AMODE31
         BSM   0,&R                .   TURN OFF AMODE31
A&SYSNDX DS    0H
         MEXIT
.OK31    ANOP
         L     &R,=A(A&SYSNDX)     .   GET NEXT SEQUENTIAL ADDR
         O     &R,=X'80000000'     .   MAKE IT USE AMODE31
         BSM   0,&R                .   TURN ON AMODE31
A&SYSNDX DS    0H
         MEXIT
         MEND
