         MACRO
&NAME    ELSEDO &COND
         COPY  $MGBLDEF
         LCLC  &X
         AIF   (&$MDGLVL GT 0).OK02
         MNOTE 8,'''ELSEDO'' IS VALID ONLY WITHIN A THENDO-GROUP'
         MNOTE 0,' - MACRO GENERATION TERMINATED'
         MEXIT
.OK02    AIF   ('&$MIFELS(&$MDGLVL)' EQ 'F').OK04
         MNOTE 8,'''ELSEDO'' INVALID FOLLOWING ''ELSE'' STATEMENT'
         MNOTE 0,' - MACRO GENERATION TERMINATED'
         MEXIT
.OK04    AIF   ('&$MLTAG(&$MDGLVL)' EQ '').OK20
         MNOTE 8,'''ELSEDO'' INVALID FOLLOWING ''DO'' STATEMENT'
         MNOTE 0,' - MACRO GENERATION TERMINATED'
         MEXIT
.OK20    AIF   ('&$MFNBR(&$MDGLVL)' NE '').OK30
         $MGFNBR  ,                GET A UNIQUE TAG
.OK30    J     $MDF&$MFNBR(&$MDGLVL) BRANCH AROUND IF-GROUP
&X       SETC  '$MDF&$MDGSEQ(&$MDGLVL)'
         AIF   ('&NAME' EQ '').SKIP40
&NAME    DC    0H'0'               DEFINE TAG
.SKIP40  ANOP
&X       DC    0H'0'               TAG FOR 'ELSE'
&X       SETC  '&$MDGNAM(&$MDGLVL)'
&$MDGLVL SETA  &$MDGLVL-1          SO 'THENDO' CAN BUMP IT UP AGAIN
         THENDO &COND
&$MDGNAM(&$MDGLVL) SETC '&X'
         MEND
