         MACRO
&NAME    ENDFIRST &DOGROUP=        INTERCHANGEABLE WITH 'ENDO' EXCEPT
         COPY  $MGBLDEF            . FOR 'ELSEDO' CLAUSE
         AIF   (&$MDGLVL GT 0).OK02
         MNOTE 8,'''ENDFIRST'' INVALID OUTSIDE DO-GROUP'
         MNOTE 0,' - MACRO GENERATION TERMINATED'
         MEXIT
.OK02    ANOP
         LCLC  &X
&X       SETC  '&$MCVERB(&$MDGLVL)'
         AIF   ('&X' EQ 'FIRST').CONT010
         AIF   ('&X' EQ 'FIRSTELSE').CONT010
         MNOTE 4,'''ENDFIRST'' USED TO TERMINATE ''&X'' GROUP'
.CONT010 ANOP  ,
&NAME    $MENDDO1 DOGROUP=&DOGROUP END ALL BUT HIGHEST LEVEL
         AIF   (&$MDGERR NE 0).QUIT GIVE UP EASILY
         $MENDDO2                  END FINAL LEVEL
.QUIT    MEND
