         MACRO
&NAME    ENDTEST &DUMMY
         AIF   ('&NAME' EQ '').MEND999
&NAME    DS    0H                  TAG GENERATED BY 'ENDTEST' MACRO
.MEND999 MEND
