         MACRO
&NAME    EVERY &VAR
         COPY  $MGBLDEF            BRING IN THE CLOWNS
&LCLV    SETC  '&VAR'              SET TO COUNT
         AIF   ('&VAR'(1,1) GE '0').OK30 GO IF SELF-DEFINING
         MNOTE 8,'''&VAR'' NOT SELF-DEFINING: 'EVERY' GROUP WILL BE PROC
               CESSED EACH PASS THROUGH THIS SECTION OF CODE'
&LCLV    SETC  '1'                 DO EVERY TIME
.OK30    ANOP
&$MDGLVL SETA  &$MDGLVL+1          INCREMENT LEVEL
         $MLVLMSG &$MDGLVL,NESTING
&$MDGSEQ(&$MDGLVL) SETC '&SYSNDX'
&$MIFELS(&$MDGLVL) SETC 'F'
&$MDGNAM(&$MDGLVL) SETC '&NAME'
&$MCVERB(&$MDGLVL) SETC 'EVERY'
&X       SETC  '$MDV&SYSNDX'       MAKE IT PRETTY
&NAME    SP    &X,=P'1'            DECREMENT
         JP    $MDF&SYSNDX         B IF NOT YET TIME
         MVC   &X,=P'&LCLV'        RESET
&$MLOCTR LOCTR                     FOLLOWING CODE TO BE IN WORK AREA
&X       DC    P'&LCLV'            FREQUENCY COUNTER
&SYSECT  LOCTR                     RESUME INSTRUCTION AREA
         MEND
