         MACRO
&NAME    THENDO &COND '&COND' MUST BE CHAR(S) FOLLOWING 'B' OF EXTENDED
.*             MNEMONICS, EG 'E' OF 'BE' OR 'NO' OF 'BNO', ETC
         COPY  $MGBLDEF
         LCLC  &X,&Y
&Y       SETC  'N&COND'
         AIF   ('&COND'(1,1) NE 'N').SKIP05
&Y       SETC  '&COND'(2,1)
.SKIP05  ANOP
&$MDGLVL SETA  &$MDGLVL+1          UP DO-GROUP LEVEL
         $MLVLMSG
&$MDGSEQ(&$MDGLVL) SETC '&SYSNDX'  SET DO-GROUP SEQUENCE
&$MDGNAM(&$MDGLVL) SETC '&NAME'    SET DO-GROUP NAME
&$MIFELS(&$MDGLVL) SETC 'F'
         AIF   ('&NAME' NE '').SKIP07
&$MDGNAM(&$MDGLVL) SETC '$MDG&$MDGSEQ(&$MDGLVL)'
.SKIP07  J&Y   $MDF&$MDGSEQ(&$MDGLVL) SKIP DO-GROUP IF REL NOT TRUE
         AIF   ('&NAME' EQ '').SKIP10
&NAME    DC    0H'0'              NAME OF DO-GROUP
.SKIP10  MEND
