         MACRO
&NAME    GETOUT
         GBLC  &COMEIN
&NAME    B     &COMEIN.+4          BRANCH TO EXIT CODE IN COMEIN MACRO
         MEND
