         MACRO
&NFS     DCBEXIT  &BLKSIZE=,&BUFNO=
.*.
.*$MACRO=DCBEXIT    DATE=04/20/78       SOURCE=LDW
.*
.*  THIS MACRO WILL GENERATE A DCB EXIT TO SUPPLY CERTAIN OMITTED DCB
.*       VALUES
.*
.*  UPDATED:  02/15/84 LDW  FIX FOR UNALIGNED MACRO CALL
.*
.*.
         LCLC  &NAME
&NAME    SETC  '&NFS'
         AIF   ('&NAME' NE '').NAMEOK
&NAME    SETC  'IHB&SYSNDX'
.NAMEOK  PUSH  USING
         DROP
         USING &NAME,R15
         AIF   ('&BLKSIZE' EQ '').B1
&NAME    CLC   62(2,R1),=F'0'           BLKSIZE GIVEN?
&NAME    SETC  ''
         AIF   ('&BUFNO' EQ '').A1
         BNE   *+10                     YES - USE IT
         AGO   .A2
.A1      BNER  R14                      YES - USE IT
.A2      MVC   62(2,R1),=Y(&BLKSIZE)    SET DEFAULT
.B1      AIF   ('&BUFNO' EQ '').C1
&NAME    CLI   20(R1),0                 BUFNO GIVEN?
         BNER  R14                      YES - USE IT
         MVI   20(R1),&BUFNO            SET DEFAULT
.C1      BR    R14                      RETURN TO OPEN
         SPACE 2
         POP   USING
         SPACE 3
         MEND
