         MACRO
&NAME    DCMS#DCC  &I
.*.
.*$MACRO=ZB         DATE=10/23/79       SOURCE=DCMS (DLH@SDC)
.*$MACRO=DCMS#DCC   DATE=02/25/81       SOURCE=DCMS
.*
.*   DECLARE CENTERED CONSTANT - CENTER A CONSTANT IN A 79 BYTE FIELD
.*
.*.
         LCLA  &LL
         LCLA  &HJ
         LCLA  &HR
         LCLA  &HL
         AIF   ('&NAME' EQ '').NONAM
&NAME    DS    0CL79
.NONAM   AIF   (K'&I GT 79).TOLONG
&LL      SETA  K'&I
&HJ      SETA  81-&LL
&HL      SETA  &HJ/2
&HR      SETA  &HJ-&HL
         DC    &HL.C' '
         DC    C&I
         DC    &HR.C' '
         SPACE
         MEXIT
.TOLONG  MNOTE 9,'CONSTANT ITEM MUST BE 79 CHARACTERS OR LESS'
         MEND
