* I COULDN'T FIND THIS DSECT IN ANY OF THE AVAILABLE MACLIBS, SO
* I'M FAKING IT...   SDM 14JUN79
         MACRO
&LABEL   IKJCVT
         LCLC  &NAME
* GIS.MACLIB(IKJCVT) - GIBRALTAR INFO SERVICES - 14JUN79
*    OS/VS2 RELEASE 3.7 COMMUNICATION VECTOR TABLE
*    (SUBSET DEFINITION FOR TSO SERVICES)
&NAME    SETC  'CVT'
         AIF   (T'&LABEL EQ 'O').NAMEOK
&NAME    SETC  '&LABEL'
.NAMEOK  ANOP
CVTPTR   EQU   16
&NAME    DSECT
CVTMAP   EQU   *
         ORG   CVTMAP+X'1E0'
CVTSCAN  DS    A              COMMAND SCAN
         ORG   CVTMAP+X'20C'
CVTPARS  DS    A              PARSE ROUTINE
         ORG   CVTMAP+X'2DC'
CVTDAIR  DS    A              DYNAMIC ALLOCATION INTERFACE ROUTINE
         ORG   CVTMAP+X'2E0'
CVTEHDEF DS    A              DEFAULT ROUTINE
         ORG   CVTMAP+X'2E4'
CVTEHCIR DS    A              CATALOG INFORMATION ROUTINE
         ORG   CVTMAP+X'3D0'
CVTEFF02 DS    A              TSO MESSAGE ISSUER ROUTINE
         ORG
* END OF IKJCVT DEFINITION
         MEND
