         MACRO
&NAME    IOCB
.*.
.*$MACRO=IOCB       DATE=09/00/79       SOURCE=SDC
.*
.*  UPDATES:
.*    11/10/81  LDW  REMOVE EJECT AT FRONT
.*    09/11/81  LDW  ADD IOCBTVAM FLAG   - VAM USER INDICATOR
.*    06/25/80  LDW  ADD IOCBATIO FIELD  - ADDR OF LOADED TERMIO MODULE
.*    02/11/80  LDW  ADD IOCBCATR BIT
.*
.*  THIS MACRO IS PART OF DCMS.  IT DEFINES THE I/O CONTROL BLOCK USED
.*  TO INTERFACE TO THE DCMS TERMINAL I/O SUBROUTINES.
.*.
         SPACE 1
&NAME    DS    0D                       ------------- <=========I O C B
IOCBFMT  DS    A                        | I O C B   |
IOCBIMG  DS    A                        | I M A G E |
IOCBDECB DS    A                        -------------
IOCBCUR  DS    H                        CURSOR OFFSET FROM IMAGE START
         SPACE 2
*                                                                    *
*        I O C B   C O N T R O L   F L A G S                         *
*                                                                    *
IOCBFLGS DS    X                        FLAG-S (SERVICE)
IOCBFNWR EQU   X'80'                       NO WRITE
IOCBFNRD EQU   X'40'                       NO READ
IOCBFW8  EQU   X'C0'                       WAIT (CHECK) ONLY
IOCBFNWT EQU   X'20'                       NO WAIT
IOCBFCUR EQU   X'10'                       CURSOR ADDRESS SPECIFIED
IOCBFNBP EQU   X'04'                       BEEP NOT OVERRIDDEN
IOCBFNRR EQU   X'02'                       RESTORE NOT OVERRIDDEN
IOCBFNRS EQU   X'01'                       RESET NOT OVERRIDDEN
         SPACE 2
IOCBFLGT DS    X                        FLAG-T (TYPE)
IOCBTTSO EQU   X'80'                       TERMINAL RUNNING UNDER TSO
IOCBTBSC EQU   X'40'                       TERMINAL RUNNING UNDER BTAM
IOCBTDSP EQU   X'20'                       DISPLAY TERMINAL
IOCBTHCY EQU   X'10'                       HARDCOPY TERMINAL
IOCBTCMD EQU   X'08'                       TERMINAL IS OPERATOR CONSOLE
IOCBTVAM EQU   X'04'                       TERMINAL RUNNING UNDER VAM
IOCBTF02 EQU   X'02'
IOCBTBAL EQU   X'01'                       IOCBLOAD SERVICE SUPPORTED
*  NOTE:  IF IOCBTVAM IS SET, IOCBTTSO WILL ALSO BE SET (IN TERMIO1)
         SPACE 2
IOCBFLGL DS    X                        FLAG-L (LOG)
IOCBLALL EQU   X'80'                       LOG ALL SCREENS
IOCBLNOW EQU   X'40'                       LOG CURRENT SCREEN
IOCBLBAD EQU   X'20'                       LOG FACILITY BROKEN
IOCBLHEX EQU   X'10'                       LOG SCREEN IN HEX
IOCBLDEC EQU   X'08'                       LOG SCREEN IN DECIMAL
IOCBLF04 EQU   X'04'                       RESERVED
IOCBLF02 EQU   X'02'                          ..
IOCBLF01 EQU   X'01'                       RESERVED
         EJECT
*                                                                    *
*        I O C B   C O N T R O L   F L A G S                         *
*                                                                    *
         SPACE 2
IOCBFLGC DS    X                        FLAG-C  (CONTROL)
IOCBCCLR EQU   X'80'                       CLEAR SCREEN ON ENTRY
IOCBCDLS EQU   X'40'                       DISPLAY LOGO SCREEN
IOCBCTIM EQU   X'20'                       DO NOT DISPLAY TIME STAMP
IOCBCINT EQU   X'10'                       DO NOT DISPLAY INTERVAL
IOCBCRAO EQU   X'08'                       RETURN AID ONLY ON PFK
IOCBCFRA EQU   X'04'                       RETURN AID ONLY (FORCE ALL)
IOCBCATR EQU   X'02'                       REFRESH ALL ATTRIBUTE BYTES
IOCBCF01 EQU   X'01'                       RESERVED
         SPACE 2
IOCBFLGD DS    X                        FLAG-D  (DELAY)
IOCBDYON EQU   X'80'                       IOCBWAIT DELAY TO BE USED
IOCBDFRC EQU   X'40'                       FORCE DELAY IF TSO
IOCBDASK EQU   X'20'                       PROMPT FOR INTERVAL UPDATE
IOCBDPK2 EQU   X'10'                       PASS PFK2 OUT TO PROGRAM
IOCBDLAY EQU   X'08'                       FORCE USE IOCBWAIT CURRENT
IOCBDF04 EQU   X'04'                          ..
IOCBDF02 EQU   X'02'                          ..
IOCBDF01 EQU   X'01'                       RESERVED
         SPACE 2
IOCBFLGM DS    X                        FLAG-M (MISCELLANEOUS)
IOCBMF80 EQU   X'80'                       RESERVED
IOCBMF40 EQU   X'40'                       RESERVED
IOCBMF20 EQU   X'20'                       RESERVED
IOCBMF10 EQU   X'10'                       RESERVED
IOCBMF08 EQU   X'08'                       RESERVED
IOCBMF04 EQU   X'04'                       RESERVED
IOCBMF02 EQU   X'02'                       RESERVED
IOCBMF01 EQU   X'01'                       RESERVED
         EJECT
*                                                                    *
*        A I D    A N D    S Y M B O L I C    V A L U E S            *
*                                                                    *
         SPACE 2
IOCBAID  DS    X                        AID RETURNED AFTER READ
AIDENT   EQU   X'7D'                    ENTER KEY
AIDPF1   EQU   X'F1'                    PF KEY 01
AIDPF2   EQU   X'F2'                    PF KEY 02
AIDPF3   EQU   X'F3'                    PF KEY 03
AIDPF4   EQU   X'F4'                    PF KEY 04
AIDPF5   EQU   X'F5'                    PF KEY 05
AIDPF6   EQU   X'F6'                    PF KEY 06
AIDPF7   EQU   X'F7'                    PF KEY 07
AIDPF8   EQU   X'F8'                    PF KEY 08
AIDPF9   EQU   X'F9'                    PF KEY 09
AIDPF10  EQU   X'7A'                    PF KEY 10
AIDPF11  EQU   X'7B'                    PF KEY 11
AIDPF12  EQU   X'7C'                    PF KEY 12
AIDPA1   EQU   X'6C'                    ATTENTION
AIDPA2   EQU   X'6E'                    RESHOW
AIDCAN   EQU   AIDPA2                   CANCEL
AIDPA3   EQU   X'6B'                    PA3
AIDCLR   EQU   X'6D'                    CLEAR
AIDNULL  EQU   X'00'                    NULL INPUT SIGNAL AID
         SPACE 2
IOCBWCC  DS    X                        WRITE CONTROL CHARACTER
IOCBWBP  EQU   X'04'                    BEEP
IOCBWRR  EQU   X'02'                    WCC RESTORE
IOCBWRS  EQU   X'01'                    WCC RESET MDT
IOCBRSV1 DS    XL2                      RESERVED FOR FUTURE USE
IOCBISWK DS    0CL8
IOCBFWDW DS    F                        TIMESTAMP WORK AREA
IOCBPSGN DS    X                           .. ..  ..
IOCBRSV2 DS    XL3
         EJECT
IOCBTDCB DS    F                        TDCB POINTER
IOCBLOG  DS    F                        LOG WORK AREA POINTER
IOCBWAIT DS    F                        DELAY SERVICE COUNTER
IOCBTERM DS    0CL12                    TERMINAL TYPE WORK AREA
IOCBROWS DS    F                        ROWS IN DISPLAY
IOCBCOLS DS    F                        COLS IN DISPLAY (LINESIZE)
IOCBXBUF DS    F                        TGET EXTRA BUFFER
IOCBCTRL DS    XL4                         .. ..  ..
IOCBTIME DS    CL24                     TIMESTAMP WORK AREA
IOCBNAME DS    CL8                      NAME OF CURRENT MONITOR
IOCBSHOW DS    CL11                     INTERVAL DISPLAY AREA
IOCBITVL DS    CL12
IOCBSSTH DS    CL5                      INTERVAL WORK AREA
IOCBEND  DS    CL8                      DYNAMIC INPUT SCRATCH AREA
IOCBLOAD DS    F                        SERVICE ROUTINE ADDRESS
IOCBTEST DS    F                        CONTROL ROUTINE ADDRESS
IOCBATIO DS    A                        ADDRESS OF LOADED TERMIO MODULE
         DS    0D
STAMPLEN EQU   IOCBEND-IOCBCTRL
         SPACE 3
         MEND  ,
