         MACRO
&NAME    RMCNS
* A-000000-999999                                               @Y02133
*/** START OF SPECIFICATION **************************************** */
*/*                                                                  */
*/*  MODULE NAME - IRARMCNS  (COMPONENT - 5742-SC1CX)                */
*/*                                                                  */
*/*  DESCRIPTIVE NAME - SYSTEM RESOURCES MANAGER CONSTANTS MODULE    */
*/*                                                                  */
*/*  COPYRIGHT - NONE                                                */
*/*                                                                  */
*/*  STATUS - OS/VS2 RELEASE 4, 10/30/75, LEVEL=1                    */
*/*                                                                  */
*/*  FUNCTION - PROVIDES THE PRE-ASSEMBLED TABLES USED WITHIN THE    */
*/*        SYSTEM RESOURCES MANAGER FOR DYNAMIC (NON-REFRESHABLE)    */
*/*        DATA.  CATEGORIZES THE ROUTINES INTERNAL TO THE SYSTEM    */
*/*        RESOURCES MANAGER COMPONENT.                              */
*/*                                                                  */
*/*  NOTES - THE RESOURCES MANAGER CONTROL TABLE IS FIRST IN THE     */
*/*        MODULE.  THE CPU MANAGEMENT, I/O MANAGEMENT, STORAGE      */
*/*        MANAGEMENT, AND CONTROL ALGORITHM TABLES, AND THEN THE    */
*/*        RESOURCES MANAGER (SUB)ROUTINE ENTRY POINT DESCRIPTOR     */
*/*        TABLES ARE NEXT, IN THAT ORDER, SO THAT THEY MAY ALL      */
*/*        BE ADDRESSED WITH ONE REGISTER.                           */
*/*                                                                  */
*/*    DEPENDENCIES - SYSTEM RESOURCES MANAGER INITIALIZATION TO     */
*/*          PROVIDE ADDRESSES OF DYNAMICALLY CREATED TABLES.        */
*/*                                                                  */
*/*    RESTRICTIONS - NONE                                           */
*/*                                                                  */
*/*    REGISTER CONVENTIONS - REG 2 (RMCTPTR) IS USED TO ADDRESS     */
*/*          ALL THE TABLES, UP TO AND INCLUDING THE EPST, THAT      */
*/*          FOLLOW THE RMCT WITHIN THE IRARMCNS MODULE.             */
*/*                                                                  */
*/*  MODULE TYPE - TABLE                                             */
*/*                                                                  */
*/*    PROCESSOR - ASSEMBLER XF                                      */
*/*                                                                  */
*/*    MODULE SIZE - 2K BYTES                                        */
*/*                                                                  */
*/*    ATTRIBUTES - NUCLEUS RESIDENT                                 */
*/*                 NON-EXECUTABLE                                   */
*/*                                                                  */
*/*  ENTRY POINT - N/A                                               */
*/*                                                                  */
*/*  INPUT - N/A                                                     */
*/*                                                                  */
*/*  OUTPUT - N/A                                                    */
*/*                                                                  */
*/*  EXIT - N/A                                                      */
*/*                                                                  */
*/*  EXTERNAL REFERENCES - SEE EXTERNAL SYBOL DICTIONARY FOR         */
*/*        ROUTINE NAMES OF THE FORM IRARMXXX.                       */
*/*                                                                  */
*/*  TABLES - LOCATES IRARLCT                                        */
*/*                   IRAWMST                                        */
*/*                   IRAWAMT                                        */
*/*                                                                  */
*/*  MACROS - IRARMCT                                                */
*/*           IRACCT                                                 */
*/*           IRAICT                                                 */
*/*           IRAMCT                                                 */
*/*           IRARMPT                                                */
*/*           IRARMCA                                                */
*/*           IRARMEX                                                */
*/*           IRARMSB                                                */
*/*           IRAEPDT                                                */
*/*           IRAEPAT                                                */
*/*           IRARMQH                                                */
*/*           IRAOUCB                                                */
*/*           IRAOUXB                                                */
*/*           IRARQSRV                                       @Z40BPCH*/
*/*                                                                  */
*/*  CHANGE ACTIVITY =@ZM43084                                       */
*/*                                                                  */
*/*  A000000-999999                                            Y02133*/
*/*                                                                  */
*/** END OF SPECIFICATION ****************************************** */
         AIF ('&NAME' EQ '').NONAM
&NAME    DSECT
         AGO  .GEN
.NONAM   ANOP
IRARMCNS DSECT
.GEN     ANOP
         SPACE 3
         IEZBITS
         EJECT
         IRARMCT   DSECT=NO
         EJECT
         IRACCT    DSECT=NO
         EJECT
         IRAICT    DSECT=NO
         EJECT
         IRAMCT    DSECT=NO
         EJECT
         IRARCT    DSECT=NO                                    @Z40BPCH
         EJECT                                                 @Z40BPCH
         IRARMPT   DSECT=NO
         EJECT
         IRARMCA   DSECT=NO
         EJECT
         IRARMEX   DSECT=NO
         EJECT
         IRARMSB   DSECT=NO
         EJECT
         IRAEPAT   DSECT=NO
         EJECT
         IRAEPDT   DSECT=NO
         EJECT
         IRAEPST   DSECT=NO
         EJECT
*
*        SYSTEM RESOURCES MANAGER TIMER-DRIVEN ENTRY POINT
*              SCHEDULING QUEUE HEADER
*
         DS    0D
IRACTMQE EQU   *
         DS    0CL32 -             QUEUE HEADER BLOCK
         DC    A(0) A(IRARMNOP) -  DUMMY ROUTINE ENTRY ADDRESS
         DC    A(0) A(IRARMNOP) -  DUMMY ROUTINE RETRY ADDRESS
         DC    X'00000000' -       DUMMY ROUTINE INVOCATION ID
         DC    C'TMQE' -           QUEUE IDENTIFICATION
         DC    A(0) A(IRACTMQE) -  QUEUE FORWARD POINTER
         DC    A(0) A(EPATSCH) -   QUEUE BCKWARD POINTER
         DC    X'FFFFFFFF' -       QUEUE ENTRY ORDERING VALUE
         DC    F'0' -              DUMMY INVOCATION INTERVAL
         EJECT
         IRARMQH   DSECT=NO,QUE=WTQE
         IRARMQH   DSECT=NO,QUE=OTQE
         IRARMQH   DSECT=NO,QUE=INQE
         IRAOUCB   DSECT=NO,LABEL=IRAOUCB
         EJECT
         IHAOUXB   DSECT=NO,LABEL=IRAOUXB
         EJECT
*
*        REQUEST SERVICE SYSEVENT(38) DATA AREA                @Z40BPCH
*
         IRARQSRV DSECT=NO                                     @Z40BPCH
         EJECT
*
*        FIELDS ADJUSTED WHENEVER TIME OF DAY INCREMENT IS CHANGED
*
IRAFLTM  DC    A(0) A(FLTMSYS)
         DC    A(0) A(FLTMUSR)
         DC    A(0) A(FLTMSAV)                               @Z30WIMG
         MEND
