         MACRO
&NAME    TPUTX &BFF,&SIZE,&EDIT,&WAIT,&HOLD,&BRKI,&PRTY,&TJID=,        *
               &TJIDLOC=,&MF=I
.*.
.*$MACRO=TPUTX      DATE=04/00/79       SOURCE=UCLA
.*
.*  THIS MACRO IS A REPLACEMENT FOR THE IBM 'TPUT' MACRO.  'TPUTX'
.*       GENERATE BETTER CODE, AND ALLOWS OPERANDS VALID FOR 'LA'
.*       INSTRUCTION, NOT JUST OPERANDS VALID FOR 'DC A(_)'.
.*.
         GBLA  &GETLENL
         GBLC  &$NFS
         LCLA  &K,&I,&BITS
         LCLA  &N,&MAXLEN
         LCLB  &ED,&WA,&HO,&BR,&PR
&$NFS    SETC  '&NAME'
&K       SETA  3                        NORMAL PLACE TO START SCAN
         AIF   ('&BFF' NE '').HAVEBFF
         MNOTE 8,'*** MESSAGE OR MESSAGE ADDR OMITTED.'
         MEXIT
.HAVEBFF AIF   ('&BFF'(1,1) NE '''').NOTQ
&K       SETA  K'&BFF-2                 LENGTH OF CHAR STRING
&N       SETA  2                        START AT FIRST TEXT CHAR
&MAXLEN  SETA  &K                       SET LENGTH OF CHAR STRING
.QLOOP   AIF   ('&BFF'(&N,2) NE '''''' AND '&BFF'(&N,2) NE '&&').QCONT
&K       SETA  &K-1                     ACCOUNT FOR DBLE CHAR
&N       SETA  &N+1                     FUDGE PAST
.QCONT   ANOP
&N       SETA  &N+1
         AIF   (&N LE &MAXLEN).QLOOP
&$NFS    LA    0,&K                     GET STRING LENGTH
&$NFS    SETC  ''                       NAME FIELD SYMBOL DONE
         LA    1,=C&BFF
&K       SETA  2                        ONLY ONE OPERAND FOR STRING
         AGO   .GOTPTRS
.NOTQ    ANOP
.*&NFS   ICTINNRA &BFF,&SIZE            LOAD BUFFER PTR AND LENGTH
&$NFS    $RXR  ,&BFF,1                  LOAD BUFFER PTR
         $RXR  ,&SIZE,0                 LOAD BUFFER LENGTH
.GOTPTRS AIF   ('&TJID' EQ '' AND '&TJIDLOC' EQ '').NOTJID
         AIF   ('&TJID' EQ '').LOADTJ
.*       ICTINNRA ,,&TJID               GET TJID
&$NFS    $RXR  ,&TJID,14                GET TJID
         AGO   .ORTJ
.*LOADTJ ICTINNRA ,,&TJIDLOC            INDIRECT TJID
.LOADTJ  ANOP
&$NFS    $RXR  ,&TJIDLOC,15             INDIRECT TJID
         LH    15,0(,15)                LOAD TJID
.ORTJ    SLL   15,16                    TJID INTO TOP HALF
         OR    0,15                     ADD TO PARM REG 0
.NOTJID  ANOP
&I       SETA  &K                       FIRST OPERAND TO CHECK
.LOOP    AIF   (&I GT N'&SYSLIST).SETOP IF ALL ARE PROCESSED, JUMP OUT
         AIF   ('&SYSLIST(&I)' EQ 'EDIT').EDIT
         AIF   ('&SYSLIST(&I)' EQ 'ASIS').ASIS
         AIF   ('&SYSLIST(&I)' EQ 'CONTROL').CONTROL
         AIF   ('&SYSLIST(&I)' EQ 'FULLSCR').FULLS
         AIF   ('&SYSLIST(&I)' EQ 'WAIT').WAIT
         AIF   ('&SYSLIST(&I)' EQ 'NOWAIT').NOWAIT
         AIF   ('&SYSLIST(&I)' EQ 'NOHOLD').NOHOLD
         AIF   ('&SYSLIST(&I)' EQ 'HOLD').HOLD
         AIF   ('&SYSLIST(&I)' EQ 'NOBREAK').NOBREAK
         AIF   ('&SYSLIST(&I)' EQ 'BREAKIN').BREAKIN
         AIF   ('&SYSLIST(&I)' EQ 'HIGHP').HIGHP
         AIF   ('&SYSLIST(&I)' EQ 'LOWP').LOWP
         AIF   ('&SYSLIST(&I)' EQ 'R').NEXTI
         AIF   ('&SYSLIST(&I)'(1,4) EQ 'TJID').SETOP
         MNOTE 8,'INVALID OPTION &SYSLIST(&I) - IGNORED'
.NEXTI   ANOP
&I       SETA  &I+1                     INCREMENT COUNTER
         AGO   .LOOP                    GET NEXT OPTION IF ANY
.MUTEX   MNOTE 8,'MUTUALLY EXCLUSIVE KEYWORDS'
         AGO   .NEXTI
.FULLS   ANOP
&BITS    SETA  &BITS+3                  SET ASIS+CONTROL FOR FULL SCRN
         AGO   .EDIT                    MAKE IT MUTUALLY EXCLUSIVE
.ASIS    ANOP
&BITS    SETA  &BITS+1                  SET ASIS OPTION
         AGO   .EDIT                    MAKE IT MUTUALLY EXCLUSIVE
.CONTROL ANOP
&BITS    SETA  &BITS+2                  SET CONTROL OPTION
.EDIT    AIF   (&ED).MUTEX
&ED      SETB  1                        EDIT,ASIS OR CONTROL SET
         AGO   .NEXTI
.NOWAIT  ANOP
&BITS    SETA  &BITS+16                 SET NOWAIT OPTION
.WAIT    AIF   (&WA).MUTEX
&WA      SETB  1                        WAIT OR NOWAIT SET
         AGO   .NEXTI
.HOLD    ANOP
&BITS    SETA  &BITS+8                  SET HOLD OPTION
.NOHOLD  AIF   (&HO).MUTEX
&HO      SETB  1                        HOLD OR NOHOLD SET
         AGO   .NEXTI
.BREAKIN ANOP
&BITS    SETA  &BITS+4                  SET BREAKIN OPTION
.NOBREAK AIF   (&BR).MUTEX
&BR      SETB  1                        BREAKIN OR NOBREAK SET
         AGO   .NEXTI
.LOWP    ANOP
&BITS    SETA  &BITS+X'20'              FORCE LOW PRTY (EVEN IF KEY0)
.HIGHP   AIF   (&PR).MUTEX
&PR      SETB  1                        HIGHP OR LOWP SET
         AGO   .NEXTI
.SETOP   AIF   ('&BFF'(1,1) NE '(').NOTREG I MUST HAVE DONE LA
&$NFS    LA    1,0(,1)                  MAKE HIGH BYTE 0
.NOTREG  AIF   (&BITS EQ 0).CALL
         LA    15,&BITS                 GET OPTIONS
         SLL   15,24                    SHIFT TO TOP BYTE
         OR    1,15                     OR IN OPTIONS
.CALL    AIF   ('&MF' EQ 'I' OR '&MF' EQ 'B').CHK2
         MNOTE 4,'*** INVALID MF OPTION'
         MEXIT
.CHK2    AIF   ('&MF' EQ 'I').CALLIT
         MEXIT
.CALLIT  SVC   93                       ISSUE TPUT SVC
         MEND
