         MACRO ,
&NAME    BREAK ,
.* DATE.     28-JUL-1989
.* REMARKS.  THIS MACRO WORKS WITH THE MACROS WRITTEN BY DON HIGGINS,
.*          FOUND ON FILE 078 OF SHARE MVS GROUP MODS TAPE, V29 (04/84)
.*  SEE CASE,DOCASE,DOMACRO,EQUBC,ELSE,ELSEIF,ESAC,ESACOD,FI,IF,OD;
.*  AND CONTINUE.
.***************
.* NOTE -- THIS MACRO WILL ONLY WORK WHEN IT IS IN A ONE-LEVEL IF
.*        INSIDE A DO-LOOP -- FOR INSTANCE,
.*                     DO UNTIL,(...CONDITION...)
.*                       ...
.*                       IF (..OTHER.CONDITION..)
.*                         BREAK
.*                       FI
.*                       ...
.*                     OD
.*
.* (THIS RESTRICTION IS BECAUSE THE DO MACRO AND THE IF MACRO
.*  USE THE SAME ARRAY, &ELSE(10), TO STORE THEIR INFORMATION.
.*  SOMEDAY WE'LL SPLIT THEM, AND THEN YOU CAN CODE BREAK ANYWHERE.)
.***************
         GBLA  &DO(10),&DOSEQ(10),&DOLVL,&DOLAB
         GBLA  &ELSE(10),&SEQ(10),&LEVEL,&LAB
         LCLA &LCLA
&LCLA    SETA  &LEVEL-1
&NAME    B     IF0&ELSE(&LCLA)     EXIT FROM INNERMOST ENCLOSING LOOP
         MEND  ,
