./ ADD NAME=$$$MACDC 0100-10261-10261-2355-00002-00002-00000-MACLIB
  This is the entire macro library, put together in one member.

./ ADD NAME=BREAK    0100-10260-10260-1641-00028-00028-00000-MACLIB
         MACRO ,
&NAME    BREAK ,
.* DATE.     28-JUL-1989
.* REMARKS.  THIS MACRO WORKS WITH THE MACROS WRITTEN BY DON HIGGINS,
.*          FOUND ON FILE 078 OF SHARE MVS GROUP MODS TAPE, V29 (04/84)
.*  SEE CASE,DOCASE,DOMACRO,EQUBC,ELSE,ELSEIF,ESAC,ESACOD,FI,IF,OD;
.*  AND CONTINUE.
.***************
.* NOTE -- THIS MACRO WILL ONLY WORK WHEN IT IS IN A ONE-LEVEL IF
.*        INSIDE A DO-LOOP -- FOR INSTANCE,
.*                     DO UNTIL,(...CONDITION...)
.*                       ...
.*                       IF (..OTHER.CONDITION..)
.*                         BREAK
.*                       FI
.*                       ...
.*                     OD
.*
.* (THIS RESTRICTION IS BECAUSE THE DO MACRO AND THE IF MACRO
.*  USE THE SAME ARRAY, &ELSE(10), TO STORE THEIR INFORMATION.
.*  SOMEDAY WE'LL SPLIT THEM, AND THEN YOU CAN CODE BREAK ANYWHERE.)
.***************
         GBLA  &DO(10),&DOSEQ(10),&DOLVL,&DOLAB
         GBLA  &ELSE(10),&SEQ(10),&LEVEL,&LAB
         LCLA &LCLA
&LCLA    SETA  &LEVEL-1
&NAME    B     IF0&ELSE(&LCLA)     EXIT FROM INNERMOST ENCLOSING LOOP
         MEND  ,
./ ADD NAME=CECDYN   0100-10260-10260-1641-02382-02382-00000-MACLIB
         MACRO ,                                                      1
&NAME    CECDYN &VERB=,&FLG11=,&FLG21=,&FLG22=,&TEXT=,&PREFIX=,&MF=I, 0X
               &LIST=Y,                                                X
               &POS1,&POS2,&POS3,&POS4,&POS5,&POS6,&POS7,&POS8,&POS9,  X
               &POS10
.* NOTE -- ASA CARRIAGE CONTROL CHARACTERS IN COLUMN 71 >>>>>>>>>>>>>>0
.*..+....1....+....2....+....3....+....4....+....5....+....6....+....70
.*
.* MACRO NAME = CECDYN
.*
.* (C) COPYRIGHT CENTERIOR ENERGY CORPORATION 1988,1991
.*
.* FUNCTION = BUILD PARAMETER LIST FOR CALL TO DYNALLOC MACRO (SVC99)
.*
.*  THIS MACRO PROCESSES DIFFERENTLY THAN IBM-SUPPLIED MACROS, BECAUSE
.* IT GENERATES A DSECT FOR ITS PARAMETER LIST, AND ALL MOVES INTO THE
.* PARAMETER LIST ARE DONE USING THE NAMES DEFINED IN THE DSECT.
.*
.* IF &PREFIX IS SPECIFIED, SAVE IT IN GLOBAL &CEC#P (3 CHARS OR LESS)
.*                          ELSE GENERATE A UNIQUE 3-CHARACTER &CEC#P.
.* IF MF=E, THEN &PREFIX COULD REPEAT A PREVIOUSLY-SPECIED &PREFIX
.*          ELSE &PREFIX MUST BE UNIQUE.
.*
.* FURTHER PROCESSING IS DONE IN MULTIPLE PASSES:
.*   IF MF=L, 1 PASS -- CREATE DC.S (DEFINE CONSTANT) FOR ALL OPERANDS
.*                      WITH SUPPLIED VALUES FOR NON-REGISTER OPERANDS
.*                      AND WITH VALUES OF 0 FOR REGISTER OPERANDS;
.*            AND MEXIT.
.*   IF MF=I, 2 PASSES -- 1ST PASS EXACTLY LIKE MF=L;
.*                        2ND PASS, MOVE REGISTER OPERANDS TO STORAGE;
.*            AND MEXIT.
.*   IF MF=E, 2 PASSES -- 1ST PASS, DEFINE &CEC#P.DSECT, IF VALUE OF
.*                        &PREFIX WAS NOT ENCOUNTERED BEFORE;
.*                     -- 2ND PASS, MOVE ALL OPERANDS TO STORAGE,
.*                        BOTH REGISTER AND NON-REGISTER;
.*            AND MEXIT.
.*
.*  THE VALUES THE USER CAN CODE FOR VERB,FLG11,FLG21,FLG22 ARE THE
.* NAMES FROM MACRO IEFZB4D0, MINUS THE PREFIX 'S99'.  THE VALUES ARE
.* NOT CHECKED, BUT INCORRECT VALUES WILL CAUSE ASSEMBLY ERRORS
.* BECAUSE THEN THE GENERATED NAMES ARE NOT DEFINED BY IEFZB4D0.
.*  THE ADVANTAGE OF NOT CHECKING IS THAT, IF IBM DEFINES NEW VALID
.* VALUES IN MACRO IEFZB4D0, NO UPDATE OF THIS MACRO IS NECESSARY TO
.* RECOGNIZE AND PROCESS THE NEW VALUES.
.*  AS OF 14-FEB-1991, VALID VALUES DEFINED IN IEFZB4D0 ARE:
.* VERB COULD BE AL/UN/CC/DC/RI/DN/IN (CHOOSE ONLY ONE).
.* FLG11 COULD BE ONCNV, NOCNV, NOMNT, JBSYS, CNENQ.
.* FLG21 COULD BE WTVOL,WTDSN,NORES,WTUNT,OFFLN,TIONQ,CATLG,MOUNT.
.* FLG22 COULD BE UDEVT, PCINT, DYNDI.
.* FOR THE FLG.S, SPECIFY MULTIPLE VALUES WITHIN PARENTHESES.
.*
.*  TEXT UNITS ARE SPECIFIED IN THE FORM (KEY,<(VALUE0<,VALUE1...>)>).
.* IF A TEXT UNIT KEY IS SUPPLIED FOR A VERB FOR WHICH IT IS NOT
.* VALID, IT IS NOT CHECKED BY THIS MACRO, BUT IT CAUSES AN ASSEMBLY
.* ERROR BECAUSE THEN THE GENERATED KEY NAME IS NOT DEFINED BY
.* IEFZB4D2.
.*  EACH KEY NAME IS 'D' FOLLOWED BY THE 2-CHAR VERB NAME, FOLLOWED
.* BY THE TEXT UNIT NAME.
.*
.*                                                                    -
.* EXAMPLE OF CALLING SEQUENCE:
.*         CECDYN PREFIX=X01,MF=(E,WORKAREA),                       X
.*               VERB=AL,FLG11=(ONCNV,NOMNT),                       X
.*               TEXT=((DDNAM,DSCL8),(SYSOU,'A'),RTORG)
.* IF ANY TEXT UNITS SHOULD RETURN VALUES, THE VALUES WILL BE FOUND
.* IN FIELDS LABELLED WITH THE 3 CHARACTERS SPECIFIED BY &PREFIX,
.* PLUS THE TEXT UNIT'S NAME.  THE ABOVE CALL WILL DEFINE ORDINARY
.* LABEL X01RTORG.
.*
.*   IF &PREFIX IS REPEATED ACROSS CALLS, THE DSECT IS NOT DUPLICATED,
.* BUT THE EXACT SAME TEXT UNITS MUST BE SPECIFIED AS WERE ON THE
.* ORIGINAL CALL.  (OR, AT LEAST, NO TEXT UNITS THAT DID NOT APPEAR
.* IN THE ORIGINAL CALL.  THAT IS, FEWER COULD BE SPECIFIED.)  THE
.* FLAG FIELDS CAN BE DIFFERENT THAN ON THE ORIGINAL CALL.
.*
.* GLOBALS
         GBLA  &CEC#CMT1COL  DEFAULT COLUMN FOR COMMENT 1 FIELD
         GBLA  &CEC#CMT2COL  DEFAULT COLUMN FOR COMMENT 2 FIELD
         GBLA  &CECCMT1COL   CURRENT COLUMN FOR COMMENT 1 FIELD
         GBLA  &CECCMT2COL   CURRENT COLUMN FOR COMMENT 2 FIELD
         GBLC  &CEC#CMT2VAL  TEXT AT RIGHT-HAND END OF GENERATED STMTS
         GBLC  &CEC#DBG#HDR  TEXT AT LEFT-HAND OF DEBUGGING MNOTES
         GBLB  &CEC#DEBUG    Q. ISSUE MSG.S ABOUT INTERNAL PROCESSING?
         GBLA  &CEC#FLAG(5)  CONTROLS MULTIPLE PASSES WITHIN .COMMON
         GBLB  &CEC#KEYDONE  Q. DONE RECOGNIZING TEXT UNIT?
         GBLB  &CEC#NEWP     Q. WE HAD TO ADD &CEC#P TO &CEC#PTBL?
         GBLB  &CEC#NOT1ST   Q. HAS CECDYN EVER BEEN CALLED?
         GBLC  &CEC#P        3-CHAR VALUE USED IN GENERATED CODE
         GBLA  &CEC#PMAX     MAXIMUM ENTRIES SAVED IN &CEC#PTBL(100)
         GBLC  &CEC#PTBL(100) SAVES ALL UNIQUE &CEC#P.S EVER SEEN
         GBLB  &CEC#PUSHED   Q. DO WE NEED TO POP PRINT AT MEXIT?
         GBLA  &CEC#SYSNDX   HOW MANY TIMES CECDYN HAS BEEN CALLED
         GBLB  &CEC#XLAT     Q. TABLE CODED IN &POS9 OF .DOKEY CALL?
         GBLC  &CEC#3CH      UNIQUE, GENERATED INTERNALLY
.* LOCALS
         LCLA  &I,&J,&LCLA,&LCLA2,&LCLA3
         LCLA  &I1,&I10,&IIX
         LCLC  &KEY,&VALUE
         LCLB  &LCLB,&LCLB1
         LCLC  &LBL,&OPR,&OPD,&CMT
         LCLC  &LCLC,&LCLC2,&LCLC3
         LCLC  &DUP,&TYP,&LGH,&VAL
         LCLA  &DV,&LV
         LCLC  &DX,&LX,&VV
.*
&NX      SETC  '&SYSNDX'               DEFINE SHORTER NAME FOR LATER
.*
.*..+....1....+....2....+....3....+....4....+....5....+....6....+....7
.*
         AIF   (&CEC#NOT1ST).NOT1STA
         MNOTE '* MACRO CECDYN, LAST CHANGE 14-JAN-1993 11.31'
.* CHANGE LOG: (NEWEST CHANGE ON TOP)
.* 14-JAN-1993  L.SOMOS  AFTER .CLEAR, CHECK FOR '*' TO SET HI-BIT.
.* 14-MAR-1991  L.SOMOS  CORRECT PROCESSING OF REGISTER OPERANDS.
.NOT1STA ANOP  ,
.*
.*..+....1....+....2....+....3....+....4....+....5....+....6....+....71
.*
         AIF   (&CEC#NOT1ST).NOT1STB
.* FOLLOWING PROCESSING DONE ONLY ONCE PER SOURCE MODULE
.*
&CEC#CMT1COL SETA 33         COLUMN OF COMMENTS ON GENERATED LINES
&CEC#CMT2COL SETA 63         COLUMN OF COMMENTS ON GENERATED LINES
&CEC#DEBUG SETB 0      TURN OFF
.* TURN ON BY CALLING WITH ONLY 1 POSITIONAL PARAMETER, DEBUG
.*
&CEC#NOT1ST SETB 1           ABOVE PROCESSING NEVER REPEATED AGAIN
.NOT1STB ANOP  ,
.*
.* THIS MUST COME AFTER .NOT1STB:
         AIF   (0 NE N'&SYSLIST).SUBROUT   GO CHECK SUBROUTINE CALLS
.* ONLY KEYWORD PARMS ARE USED IN EXTERNAL CALLS, NO POSITIONAL PARMS.
.* POSITIONAL PARMS ARE ONLY USED IN RECURSIVE INNER MACRO SELF-CALLS.
.*
&CEC#SYSNDX SETA 1+&CEC#SYSNDX    COUNT NON-SUBROUTINE CALLS TO CECDYN
.*
         MNOTE                                      '* MACRO CECDYN IS X
               (C) COPYRIGHT CENTERIOR ENERGY CORPORATION 1988,1991   '
.*
.*..+....1....+....2....+....3....+....4....+....5....+....6....+....7
.*
.* SET THE VALUE OF &CEC#3CH
&Q1      SETA  (&CEC#SYSNDX-1)/36      1ST QUOTIENT
&R1      SETA  (&CEC#SYSNDX-1)-36*&Q1  1ST REMAINDER, FOR 3RD CHAR
&Q2      SETA  &Q1/36                  2ND QUOTIENT
&R2      SETA  &Q1-36*&Q2              2ND REMAINDER, FOR 2ND CHAR
&Q3      SETA  &Q2/26                  3RD QUOTIENT
&R3      SETA  &Q2-26*&Q3              3RD REMAINDER, FOR 1ST CHAR
.* R1 AND R2 ARE ALWAYS 0 THROUGH 35   (1+&R? IS ALWAYS 1 THRU 36)
.* R3 IS ALWAYS 0 THROUGH 25       (10+1+&R3 IS ALWAYS 11 THRU 36)
&LCLC    SETC  '0123456789ABCDEFGHIJKLMNOPQRSTUVWXYZ' LENGTH 36
&CEC#3CH SETC  '&LCLC'(10+1+&R3,1).'&LCLC'(1+&R2,1).'&LCLC'(1+&R1,1)
.* &CEC#3CH IS UNIQUE FOR &CEC#SYSNDX LE 26*36*36 = 33696.
.* &CEC#3CH ALWAYS BEGINS WITH ALPHA, NEXT 2 CHARS ARE ALPHANUMERIC.
.* R1 CHANGES MOST QUICKLY, R2 NEXT, AND R3 CHANGES SLOWEST.
.* &CEC#3CH RANGES THROUGH A00,A01...A09,A0A,A0B...A0Z,
.*                         A10,A11...A19,A1A,...A1Z, A20...A29, ETC.
.*..+....1....+....2....+....3....+....4....+....5....+....6....+....7
.*
.* SET THE VALUE OF &CEC#P
         AIF   (T'&PREFIX EQ 'O').SETP WE MUST SUPPLY IT
&CEC#P   SETC  '&PREFIX'
         AIF   (K'&PREFIX GE 1 AND K'&PREFIX LE 3).PREFIXD ALL DONE
&CEC#P   SETC  '&PREFIX'(1,3)          ONLY FIRST THREE CHARACTERS
         CECDYN MNOTE,'ONLY FIRST 3 CHARACTERS OF PREFIX ARE USED, ',  X
               '"&CEC#P" INSTEAD OF "&PREFIX"'
         AGO   .PREFIXD                  ALL DONE
.SETP    ANOP  , NO VALUE SPECIFIED, SO CREATE ONE.
&CEC#P   SETC  '&CEC#3CH'
.PREFIXD ANOP  ,
.*
         AIF   ('&CEC#P' EQ '&CEC#3CH').PEQ3CH
         CECDYN MNOTE,'*        PREFIX=&PREFIX WAS SPECIFIED -- ',     X
               'ELSE, PREFIX WOULD HAVE BEEN SET TO "',&CEC#3CH,       X
               '", GENERATED FROM CEC#SYSNDX=&CEC#SYSNDX..'
.PEQ3CH  ANOP  ,
.*..+....1....+....2....+....3....+....4....+....5....+....6....+....7
.*
.* SAVE &CEC#P IN &CEC#PTBL
&CEC#NEWP SETB 0                       CLEAR FLAG
&I       SETA  1
.NEXTI01 ANOP  ,
         AIF   ('&CEC#PTBL(&I)' EQ '&CEC#P').OLDP YES, WE FOUND IT
.ADVI01  ANOP  , ADVANCE &I
&I       SETA  &I+1
         AIF   (&I LE &CEC#PMAX).NEXTI01
.* OK, IT HAS NEVER BEEN SEEN BEFORE
&CEC#NEWP SETB 1                       SET FLAG FOR LATER CHECKING
&CEC#PMAX SETA &CEC#PMAX+1             INCREASE COUNTER
&CEC#PTBL(&CEC#PMAX) SETC '&CEC#P'     PLACE INTO TABLE
.OLDP    ANOP  ,
.* NOTE - THE ABOVE CODE DOES A SUPERFLUOUS COMPARISON WHEN
.*       &CEC#PMAX==0, BUT THIS DOES NOT AFFECT CORRECT PROCESSING.
.*..+....1....+....2....+....3....+....4....+....5....+....6....+....7
.*
.* CHECK &LIST PARAMETER FOR ERRORS.
         AIF   ('&LIST' EQ 'YES' OR '&LIST' EQ 'NO').LISTOK
         AIF   ('&LIST' EQ 'Y' OR '&LIST' EQ 'N').LISTOK
         MNOTE 12,'LIST=&LIST INVALID, LIST=YES ASSUMED'
.LISTOK  ANOP  ,
         AIF   ('&LIST' EQ 'NO').LISTNO
         AIF   ('&LIST' EQ 'N').LISTNO
         AGO   .LISTEX
.LISTNO  ANOP  ,
         AIF   (&CEC#PUSHED).PUSHED
         PUSH  PRINT         PUSH PRINT
&CEC#PUSHED SETB 1
.PUSHED  ANOP  ,
         PRINT OFF           LIST=NO WAS REQUESTED
.LISTEX  ANOP  ,
.*..+....1....+....2....+....3....+....4....+....5....+....6....+....7
.*
.* CHECK &MF PARAMETER FOR ERRORS.
         AIF   ('&MF' EQ '').MFOK
         AIF   ('&MF' EQ 'L' OR '&MF' EQ 'I').MFOK
         AIF   ('&MF(1)' EQ 'E').MFOK
         MNOTE 12,'MF=&MF INVALID, NORMAL FORM ASSUMED'
.MFOK    ANOP  ,
&LCLC    SETC  'CECDYN -- SECOND PARAM REQUIRED FOR MF=E'
         AIF   (N'&MF LT 2 AND ('&MF(1)' EQ 'E')).ERRMAIN
&LCLC    SETC  'CECDYN -- TOO MANY PARAMS FOR MF'
         AIF   (N'&MF GT 2 AND ('&MF(1)' EQ 'E')).ERRMAIN
         AIF   ('&MF(1)' EQ 'L').TYPEL
         AIF   ('&MF(1)' EQ 'E').TYPEE
         AGO   .TYPEI              ASSUME NORMAL FORM
.*..+....1....+....2....+....3....+....4....+....5....+....6....+....7
.*
.ERRMAIN MNOTE '&LCLC'       ISSUE MESSAGE AND EXIT
         AGO   .MEXIT
.*..+....1....+....2....+....3....+....4....+....5....+....6....+....7
.*
.MEXIT   ANOP  ,             USE THIS EXIT FROM MAINLINE
         AIF   (NOT &CEC#PUSHED).NOPOP1 THEN WE DON'T NEED TO UN-DO IT.
         POP   PRINT
&CEC#PUSHED SETB 0
.NOPOP1  ANOP  ,
&CEC#DEBUG SETB 0      TURN OFF
         MEXIT ,
.*..+....1....+....2....+....3....+....4....+....5....+....6....+....7
.*..+....1....+....2....+....3....+....4....+....5....+....6....+....71
.*
.TYPEI   ANOP  , NORMAL FORM
         CECDYN DEBUG,.TYPEI SAVE HEADING FOR DEBUG MESSAGES
         CNOP  0,4           ALIGN LIST TO FULLWORD
         BAS   1,IGX&NX      BRANCH AROUND LIST, POINT REG1 TO LIST
&CEC#FLAG(1) SETA 1,0,0,0,1  YES DC, NO DS, NO REG, NO MOVES, COMMON1
         AGO   .COMMON
.COMMON1 ANOP  ,
IGX&NX   DS    0H            BRANCHED AROUND LIST
&CEC#FLAG(1) SETA 0,0,1,0,2  NO DC, NO DS, YES REG, NO MOVES, COMMON2
         AGO   .COMMON
.COMMON2 ANOP  ,
         AGO   .MEXIT
.*
.*..+....1....+....2....+....3....+....4....+....5....+....6....+....7
.*
.TYPEL   ANOP  , LIST FORM
         CECDYN DEBUG,.TYPEL SAVE HEADING FOR DEBUG MESSAGES
&CEC#FLAG(1) SETA 1,0,0,0,3  YES DC, NO DS, NO REG, NO MOVES, COMMON3
         AGO   .COMMON
.COMMON3 ANOP  ,
         AGO   .MEXIT
.*
.*..+....1....+....2....+....3....+....4....+....5....+....6....+....7
.*
.TYPEE   ANOP  , EXECUTE FORM
         CECDYN DEBUG,.TYPEE SAVE HEADING FOR DEBUG MESSAGES
.*
.* CREATE A DSECT:
&CEC#FLAG(1) SETA 0,1,0,0,4  NO DC, YES DS, NO REG, NO MOVES, COMMON4
         AGO   .COMMON
.COMMON4 ANOP ,
.*
         AIF   ('&MF(2)'(1,1) EQ '('             AND                   X
               '&MF(2)'(K'&MF(2),1) EQ ')').USEREG
&NAME    LA    1,&MF(2)                LOAD ADDRESS OF PARAMETER LIST
         AGO   .REG1SET
.*
.USEREG  ANOP  ,                       IF A REGISTER WAS SPECIFIED
&LCLC    SETC  '&MF(2)'(2,K'&MF(2)-2)  REGISTER NAME (W/O PARENS)
         AIF   ('&LCLC' EQ '1').GENDS0H
&NAME    LR    1,&LCLC                 LOAD PARAMETER LIST ADDRESS
         AGO   .REG1SET
.*
.GENDS0H ANOP  ,
&NAME    DS    0H                      REG 1 CONTAINS LIST ADDRESS
         AGO   .REG1SET
.*
.REG1SET ANOP  ,
         USING &CEC#P.DSECT,1          REGISTER 1 POINTS TO DSECT
.*
&CEC#FLAG(1) SETA 0,0,1,1,5  NO DC, NO DS, YES REG, YES MOVES, COMMON5
         AGO   .COMMON
.COMMON5 ANOP  ,
         DROP  1
.*
         AGO   .MEXIT
.*
.*..+....1....+....2....+....3....+....4....+....5....+....6....+....7
.*..+....1....+....2....+....3....+....4....+....5....+....6....+....71
.*
.COMMON  ANOP  , GENERATE STRUCTURE OF PARAMETER LIST
.* THIS IS AN AGO-TYPE INTERNAL ROUTINE --
.* IT EXITS WITH THE STATEMENT:            AGO .COMMON&CEC#FLAG(5)
         CECDYN DEBUG,'START .COMMON, RETURN INDEX=&CEC#FLAG(5); ',    X
               'FLAGS=&CEC#FLAG(1),&CEC#FLAG(2),',                     X
               '&CEC#FLAG(3),&CEC#FLAG(4).'
.* .COMMON IS CALLED WITH FLAGS 1,0,0,0 -- JUST &CEC#FLAG(1),
.*                           OR 0,1,0,0 -- JUST &CEC#FLAG(2),
.*                           OR 0,0,1,0 -- JUST &CEC#FLAG(3),
.*                           OR 0,0,1,1 -- WITH &CEC#FLAG(3) AND (4).
.* IF &CEC#FLAG(1), MAKE DC.S FOR ALL OP.S, WITH ZEROS FOR REG. OP.S
.* IF &CEC#FLAG(2), MAKE DS.S FOR ALL OP.S, WITH ZEROS FOR ALL OP.S
.* IF &CEC#FLAG(3), THEN MOVE ONLY OPERANDS WHICH CANNOT BE GENERATED
.*               IN DC.S (REGISTER OPERANDS, AND SYMBOLIC OPERANDS
.*               FOR CONSTANTS OF TYPES WHICH REQUIRE QUOTES.)
.* IF &CEC#FLAG(4), THEN MOVE OTHER OPERANDS (LITERALS, ACONS, NULLS)
.*
.*                                                                    -
         AIF   (NOT &CEC#FLAG(1) AND NOT &CEC#FLAG(2)).NOEQU1
         AIF   (NOT &CEC#NEWP).COMEXIT SKIP -- ASSUME ALREADY DONE.
         CECDYN DEBUG,'NEWP=1, GENERATE DSECT'
         SPACE 2
&LCLC    SETC '&CEC#P.ORG'
         AIF   (&CEC#FLAG(1)).ORGDC
         AIF   (&CEC#FLAG(2)).ORGDSCT
         MNOTE 16,'SEVERE INTERNAL ERROR'
         MNOTE 'CEC#FLAG(1)=&CEC#FLAG(1) CEC#FLAG(2)=&CEC#FLAG(2)'
&CEC#DEBUG SETB 1      TURN ON
         AGO   .MEXIT
.ORGDC   ANOP  ,
&LCLC2   SETC  'DC'
&LCLC3   SETC  '0F''0'''
         AGO   .EQU1
.ORGDSCT ANOP  ,
&LCLC2   SETC  'DSECT'
&LCLC3   SETC  ''
.EQU1    ANOP  ,
&LCLC    &LCLC2 &LCLC3
*...+....1....+....2....+....3....+....4....+....5....+....6....+....7
*                SVC 99 INPUT REQUEST BLOCK
*...+....1....+....2....+....3....+....4....+....5....+....6....+....7
.NOEQU1  ANOP  ,
.*..+....1....+....2....+....3                                        0
.*
.* BUILD &LCL#FLG11, &LCLFLG21, &LCLFLG22 BY SUMMING BIT MASKS:
.*..+....1....+....2                                                  0
.*
&LCL#FLG11 SETC '0'
         AIF   (K'&FLG11 EQ 0).FLG11ZZ
&I       SETA  1
&LCL#FLG11 SETC 'S99&FLG11(&I)'
         AIF   (N'&FLG11 LE &I).FLG11XX
.FLG11QQ ANOP  ,
&I       SETA  &I+1
&LCL#FLG11 SETC '&LCL#FLG11.+S99&FLG11(&I)'
         AIF   (N'&FLG11 GT &I).FLG11QQ
.FLG11XX ANOP  ,
.FLG11ZZ ANOP  ,
.*..+....1....+....2                                                  0
.*
&LCL#FLG21 SETC '0'
         AIF   (K'&FLG21 EQ 0).FLG21ZZ
&I       SETA  1
&LCL#FLG21 SETC 'S99&FLG21(&I)'
         AIF   (N'&FLG21 LE &I).FLG21XX
.FLG21QQ ANOP  ,
&I       SETA  &I+1
&LCL#FLG21 SETC '&LCL#FLG21.+'.'S99&FLG21(&I)'
         AIF   (N'&FLG21 GT &I).FLG21QQ
.FLG21XX ANOP  ,
.FLG21ZZ ANOP  ,
.*..+....1....+....2                                                  0
.*
&LCL#FLG22 SETC '0'
         AIF   (K'&FLG22 EQ 0).FLG22ZZ
&I       SETA  1
&LCL#FLG22 SETC 'S99&FLG22(&I)'
         AIF   (N'&FLG22 LE &I).FLG22XX
.FLG22QQ ANOP  ,
&I       SETA  &I+1
&LCL#FLG22 SETC '&LCL#FLG22.+'.'S99&FLG22(&I)'
         AIF   (N'&FLG22 GT &I).FLG22QQ
.FLG22XX ANOP  ,
.FLG22ZZ ANOP  ,
.*..+....1....+....2....+....3                                        0
.*
.* (SEE .CREAT SUBROUTINE FOR MEANING OF PARAMETERS)
.*
&CECCMT1COL SETA &CEC#CMT1COL COMMENT 1 FIELD'S COLUMN
&CECCMT2COL SETA &CEC#CMT2COL COMMENT 2 FIELD'S COLUMN
.* (EACH CALL TO .CREAT DOES ABOVE SETA.S, JUST BEFORE EXITING)
.*
&CEC#P.RBP   CECDYN CREAT,0,F
&CEC#P.RBPTR CECDYN CREAT,,A,*,A(&CEC#P.RB),'REQUEST BLOCK POINTER'
.*                 (*=HIGH BIT ON)
&CEC#P.RB    CECDYN CREAT,0,F,,,'REQUEST BLOCK'
&CEC#P.RBLN  CECDYN CREAT,,A,1,&CEC#P.RBEND-&CEC#P.RB,                 X
               'LENGTH OF REQUEST BLOCK'
&CEC#P.VERB  CECDYN CREAT,,A,1,S99VRB&VERB,'VERB CODE'
&CEC#P.FLAG1 CECDYN CREAT,0,C,2,,FLAGS
&CEC#P.FLG11 CECDYN CREAT,,A,1,&LCL#FLG11,'FIRST FLAGS BYTE'
&CEC#P.FLG12 CECDYN CREAT,,A,1,0,'SECOND BYTE OF FLAGS'
&CEC#P.RSC   CECDYN CREAT,0,C,4,,'REASON CODE FIELDS'
&CEC#P.ERROR CECDYN CREAT,,X,2,0,'ERROR REASON CODE'
&CEC#P.INFO  CECDYN CREAT,,X,2,0,'INFORMATION REASON CODE'
&CEC#P.TXTPP CECDYN CREAT,,A,,A(&CEC#P.TUPL),                          X
               'ADDR OF LIST OF TEXT UNIT PTRS'
&CEC#P.RSV01 CECDYN CREAT,,F,,0,RESERVED
&CEC#P.FLAG2 CECDYN CREAT,0,C,4,,'FLAGS FOR AUTHORIZED FUNCTIONS'
&CEC#P.FLG21 CECDYN CREAT,,A,1,&LCL#FLG21,'FIRST BYTE OF FLAGS'
&CEC#P.FLG22 CECDYN CREAT,,A,1,&LCL#FLG22,'SECOND BYTE OF FLAGS'
&CEC#P.FLG23 CECDYN CREAT,,A,1,0,'THIRD BYTE OF FLAGS'
&CEC#P.FLG24 CECDYN CREAT,,A,1,0,'FOURTH BYTE OF FLAGS'
&CEC#P.RBEND CECDYN CREAT,0,,0,,'END MARKER'
.*                                                                    1
         AIF   (NOT &CEC#FLAG(1) AND NOT &CEC#FLAG(2)).NOEQU2
*...+....1....+....2....+....3....+....4....+....5....+....6....+....7
* SVC 99 TEXT UNIT POINTER LIST
*...+....1....+....2....+....3....+....4....+....5....+....6....+....7
.NOEQU2  ANOP  ,
.*
&CEC#P.TUPL  CECDYN CREAT,0,F,,,'TEXT UNIT POINTER LIST'
&I       SETA   1
.NEXTPTR ANOP  ,
&I1      SETA  &I-10*(&I/10)           1'S DIGIT OF &I
&I10     SETA  (&I/10)-10*(&I/100)     10'S DIGIT OF &I
&IIX     SETA  1+3*(&I1*(&I10-1)/(&I10-1)) IGNORE &I1 IF (&I10-1) EQ 0
&ITH     SETC  'TH ST ND RD TH TH TH TH TH TH '(&IIX,2) 0TH, 1ST, ETC.
&HIBIT   SETC  '*'                     SET FLAG TO SET HIGH BIT
         AIF   (&I EQ N'&TEXT).LASTPTR
&HIBIT   SETC  ''                      RESET FLAG TO SET HIGH BIT
.LASTPTR ANOP  ,
&LCLC3   SETC  'A(&CEC#P.TU&I)'
&LCLC4   SETC  '&TEXT(&I,1)'
         AIF   (T'&TEXT(&I,1) NE 'O').NORMAL1 NOT- SKIPPED UNIT
&LCLC3   SETC  '0'
&LCLC4   SETC  '(OMITTED)'
.NORMAL1 ANOP  ,
.* ACTUAL CODE GENERATION:                                            -
&CEC#P.PTR&I CECDYN CREAT,,A,&HIBIT,                                   X
               &LCLC3,                                                 X
               '&I&ITH TEXT UNIT POINTER, &LCLC4'
.***************************
.* THE EFFECT OF THE ABOVE CODE IS:
.* &CEC#P.PTR&I CECDYN CREAT,,A,&HIBIT,                                X
               A(&CEC#P.&TEXT(&I,1).-(S99TUPAR-S99TUNIT)),             X
               '&I&ITH TEXT UNIT POINTER, &TEXT(&I,1)'
.***************************
.ADVPTR  ANOP  , ADVANCE &I
&I       SETA  &I+1
         AIF   (&I LE N'&TEXT).NEXTPTR
.*
.*                                                                    1
         AIF   (NOT &CEC#FLAG(1) AND NOT &CEC#FLAG(2)).NOEQU3
*...+....1....+....2....+....3....+....4....+....5....+....6....+....7
* SVC 99 TEXT UNITS
*...+....1....+....2....+....3....+....4....+....5....+....6....+....7
.NOEQU3  ANOP  ,
.*
.*   BEGIN A HUGE LOOP, AROUND ALL SELF-CALLS TO .DOKEY SUBROUTINE.
.* THIS LOOP USES &I AS AN INDEX TO STEP THROUGH ALL SUBLIST ENTRIES
.* SPECIFIED IN THE TEXT= PARAMETER IN THE OUTER CALL TO CECDYN.
.*
&I       SETA   1
.NEXTI09 ANOP  ,
.*
&I1      SETA  &I-10*(&I/10)           1'S DIGIT OF &I
&I10     SETA  (&I/10)-10*(&I/100)     10'S DIGIT OF &I
&IIX     SETA  1+3*(&I1*(&I10-1)/(&I10-1)) IGNORE &I1 IF (&I10-1) EQ 0
&ITH     SETC  'TH ST ND RD TH TH TH TH TH TH '(&IIX,2) 0TH, 1ST, ETC.
&KEY     SETC  'D&VERB.&TEXT(&I,1)'
.*
         AIF   (T'&TEXT(&I,1) EQ 'O').ADVI09  SKIPPED UNIT
.*
         AIF   (T'&TEXT(&I,1) NE 'O').NORMAL2 NOT- SKIPPED UNIT
&KEY     SETC  '(OMITTED)'
.NORMAL2 ANOP  ,
.*
         CECDYN CMT2,        SET &CEC#CMT2VAL (TO BLANKS)
.*
&CECCMT1COL SETA &CEC#CMT1COL-6 SHIFT CHARS LEFT, SO 'BEGIN' STANDS OUT
&CEC#P.TU&I  CECDYN CREAT,0,F,,,'BEGIN &I&ITH TEXT UNIT, &KEY'
.*
         AIF   (T'&TEXT(&I,1) EQ 'O').ADVI09  SKIPPED UNIT
.*
&CEC#P.KEY&I CECDYN CREAT,,A,2,&KEY,'&I&ITH KEY'
.*
&CEC#KEYDONE SETB 0          PREPARE TO SEARCH
.*
.*  INFORMATION BELOW IS FROM MVS/XA SPL: SYSTEM MACROS AND FACILITIES
.* GC28-1150-2.
.*
.* (SEE .DOKEY SUBROUTINE FOR MEANING OF PARAMETERS)
.* DSNAME ALLOCATION TEXT UNITS                                       -
         AIF   ('&VERB' NE 'AL').AL#DONE
.*
.* DDNAME
         CECDYN DOKEY,&I,&KEY,&TEXT(&I,2),DALDDNAM,1,C,(1,8)
         AIF   (&CEC#KEYDONE).ADVI09
.* DSNAME (MUTUALLY EXCLUSIVE WITH DALQNAME, DALIPLTX)
         CECDYN DOKEY,&I,&KEY,&TEXT(&I,2),DALDSNAM,1,C,(1,44)
         AIF   (&CEC#KEYDONE).ADVI09
.* PDS MEMBER (REQUIRES DALDSNAM ALSO)
         CECDYN DOKEY,&I,&KEY,&TEXT(&I,2),DALMEMBR,1,C,(1,8)
         AIF   (&CEC#KEYDONE).ADVI09
.* DATA SET STATUS (MUTUALLY EXCLUSIVE WITH DALSYSOU)
         CECDYN DOKEY,&I,&KEY,&TEXT(&I,2),DALSTATS,1,A,1,              X
               ((OLD,X'01'),(MOD,X'02'),(NEW,X'04'),(SHR,X'08'),       X
               *) (USER MAY CODE VALUE DIRECTLY)
         AIF   (&CEC#KEYDONE).ADVI09
.* NORMAL DISPOSITION (MUTUALLY EXCLUSIVE WITH DALSYSOU)
         CECDYN DOKEY,&I,&KEY,&TEXT(&I,2),DALNDISP,1,A,1,              X
               ((UNCATLG,X'01'),(CATLG,X'02'),                         X
               (DELETE,X'04'),(KEEP,X'08'),                            X
               *) (USER MAY CODE VALUE DIRECTLY)
         AIF   (&CEC#KEYDONE).ADVI09
.* CONDITIONAL DISPOSITION (MUTUALLY EXCLUSIVE WITH DALSYSOU)
         CECDYN DOKEY,&I,&KEY,&TEXT(&I,2),DALCDISP,1,A,1,              X
               ((UNCATLG,X'01'),(CATLG,X'02'),                         X
               (DELETE,X'04'),(KEEP,X'08'),                            X
               *) (USER MAY CODE VALUE DIRECTLY)
         AIF   (&CEC#KEYDONE).ADVI09
.* UNIT OF DALPRIME, DALSECND WILL BE TRACKS
         CECDYN DOKEY,&I,&KEY,&TEXT(&I,2),DALTRK,0
         AIF   (&CEC#KEYDONE).ADVI09
.* UNIT OF DALPRIME, DALSECND WILL BE CYLINDERS
         CECDYN DOKEY,&I,&KEY,&TEXT(&I,2),DALCYL,0
         AIF   (&CEC#KEYDONE).ADVI09
.* AVERAGE BLOCK LENGTH TO USE FOR UNIT OF DALPRIME, DALSECND
         CECDYN DOKEY,&I,&KEY,&TEXT(&I,2),DALBLKLN,1,A,3,,'<=65535'
         AIF   (&CEC#KEYDONE).ADVI09
.* PRIMARY SPACE QUANTITY
         CECDYN DOKEY,&I,&KEY,&TEXT(&I,2),DALPRIME,1,A,3
         AIF   (&CEC#KEYDONE).ADVI09
.* SECONDARY SPACE QUANTITY
         CECDYN DOKEY,&I,&KEY,&TEXT(&I,2),DALSECND,1,A,3
         AIF   (&CEC#KEYDONE).ADVI09
.* NUMBER OF DIRECTORY BLOCKS FOR A PDS
         CECDYN DOKEY,&I,&KEY,&TEXT(&I,2),DALDIR,1,A,3
         AIF   (&CEC#KEYDONE).ADVI09
.* RELEASE UNUSED SPACE AT CLOSE TIME
         CECDYN DOKEY,&I,&KEY,&TEXT(&I,2),DALRLSE,0
         AIF   (&CEC#KEYDONE).ADVI09
.* FORMAT OF ALLOCATED SPACE
         CECDYN DOKEY,&I,&KEY,&TEXT(&I,2),DALSPFRM,1,A,1,              X
               ((ALX,X'02'),  USE DIFFERENT AREAS OF CONTIGUOUS SPACE  X
               (MXIG,X'04'),      MAXIMUM CONTIGUOUS SPACE IS REQUIRED X
               (CONTIG,X'08'),    SPACE MUST BE CONTIGUOUS             X
               *) (USER MAY CODE VALUE DIRECTLY)
         AIF   (&CEC#KEYDONE).ADVI09
.* ALLOCATE IN WHOLE CYLINDERS
         CECDYN DOKEY,&I,&KEY,&TEXT(&I,2),DALROUND,0
         AIF   (&CEC#KEYDONE).ADVI09
.* VOLUME SERIAL NUMBERS (MUTUALLY EXCLUSIVE WITH DALSYSOU, DALVLRDS)
         CECDYN DOKEY,&I,&KEY,&TEXT(&I,2),DALVLSER,(1,6),C,6
         AIF   (&CEC#KEYDONE).ADVI09
.* ASSIGN USE ATTRIBUTE OF PRIVATE (MUTUALLY EXCLUSIVE WITH DALSYSOU)
         CECDYN DOKEY,&I,&KEY,&TEXT(&I,2),DALPRIVT,0
         AIF   (&CEC#KEYDONE).ADVI09
.* VOL-SEQ WITHIN MULTI-VOLUME DATA SET (MUT.EXCL.W/DALSYSOU)
         CECDYN DOKEY,&I,&KEY,&TEXT(&I,2),DALVLSEQ,1,A,2,,'<=255'
         AIF   (&CEC#KEYDONE).ADVI09
         CECDYN DOKEY,&I,&KEY,&TEXT(&I,2),DALVLCT,1,A,1
         AIF   (&CEC#KEYDONE).ADVI09
         CECDYN DOKEY,&I,&KEY,&TEXT(&I,2),DALVLRDS,1,C,(1,44)
         AIF   (&CEC#KEYDONE).ADVI09
         CECDYN DOKEY,&I,&KEY,&TEXT(&I,2),DALUNIT,1,C,(1,8)
         AIF   (&CEC#KEYDONE).ADVI09
         CECDYN DOKEY,&I,&KEY,&TEXT(&I,2),DALUNCNT,1,A,1,,'<=59'
         AIF   (&CEC#KEYDONE).ADVI09
         CECDYN DOKEY,&I,&KEY,&TEXT(&I,2),DALPARAL,0
         AIF   (&CEC#KEYDONE).ADVI09
         CECDYN DOKEY,&I,&KEY,&TEXT(&I,2),DALSYSOU,(0,1),C,1
         AIF   (&CEC#KEYDONE).ADVI09
         CECDYN DOKEY,&I,&KEY,&TEXT(&I,2),DALSPGNM,1,C,(1,8)
         AIF   (&CEC#KEYDONE).ADVI09
         CECDYN DOKEY,&I,&KEY,&TEXT(&I,2),DALSFMNO,1,C,(1,4)
         AIF   (&CEC#KEYDONE).ADVI09
         CECDYN DOKEY,&I,&KEY,&TEXT(&I,2),DALOUTLM,1,A,3
         AIF   (&CEC#KEYDONE).ADVI09
         CECDYN DOKEY,&I,&KEY,&TEXT(&I,2),DALCLOSE,0
         AIF   (&CEC#KEYDONE).ADVI09
         CECDYN DOKEY,&I,&KEY,&TEXT(&I,2),DALCOPYS,1,1,A
         AIF   (&CEC#KEYDONE).ADVI09
.* LABEL TYPE OF VOLUME
         CECDYN DOKEY,&I,&KEY,&TEXT(&I,2),DALLABEL,1,A,1,              X
               ((NL,X'01'),  NO LABEL                                  X
               (SL,X'02'),   IBM STANDARD LABELS                       X
               (NSL,X'04'),  NON-STANDARD LABELS                       X
               (SUL,X'0A'),  IBM STANDARD LABEL PLUS USER LABEL        X
               (BLP,X'10'),  BYPASS LABEL PROCESSING                   X
               (LTM,X'21'),  CHECK FOR AND BYPASS LEADING TAPE MARK    X
               (AL,X'40'),   AMERICAN NATIONAL STANDARD LABEL          X
               (AUL,X'48'),  AL PLUS USER LABEL                        X
               *) (USER MAY CODE VALUE DIRECTLY)
         AIF   (&CEC#KEYDONE).ADVI09
         CECDYN DOKEY,&I,&KEY,&TEXT(&I,2),DALDSSEQ,1,A,2,,'<=9999'
         AIF   (&CEC#KEYDONE).ADVI09
         CECDYN DOKEY,&I,&KEY,&TEXT(&I,2),DALPASPR,1,A,1,              X
               ((PASSWORD,X'10'),(NOPWREAD,X'30'),                     X
               *) (USER MAY CODE VALUE DIRECTLY)
         AIF   (&CEC#KEYDONE).ADVI09
         CECDYN DOKEY,&I,&KEY,&TEXT(&I,2),DALINOUT,1,A,1,              X
               ((OUT,X'40'),(IN,X'80'),                                X
               *) (USER MAY CODE VALUE DIRECTLY)
         AIF   (&CEC#KEYDONE).ADVI09
         CECDYN DOKEY,&I,&KEY,&TEXT(&I,2),DALEXPDT,1,C,5
         AIF   (&CEC#KEYDONE).ADVI09
         CECDYN DOKEY,&I,&KEY,&TEXT(&I,2),DALRETPD,1,A,2,,'<=9999'
         AIF   (&CEC#KEYDONE).ADVI09
         CECDYN DOKEY,&I,&KEY,&TEXT(&I,2),DALDUMMY,0
         AIF   (&CEC#KEYDONE).ADVI09
         CECDYN DOKEY,&I,&KEY,&TEXT(&I,2),DALFCBIM,1,C,(1,4)
         AIF   (&CEC#KEYDONE).ADVI09
         CECDYN DOKEY,&I,&KEY,&TEXT(&I,2),DALFCBAV,1,A,1,              X
               ((VERIFY,X'04'),(ALIGN,X'08'),                          X
               *) (USER MAY CODE VALUE DIRECTLY)
         AIF   (&CEC#KEYDONE).ADVI09
         CECDYN DOKEY,&I,&KEY,&TEXT(&I,2),DALQNAME,1,C,(1,17)
         AIF   (&CEC#KEYDONE).ADVI09
         CECDYN DOKEY,&I,&KEY,&TEXT(&I,2),DALTERM,0
         AIF   (&CEC#KEYDONE).ADVI09
         CECDYN DOKEY,&I,&KEY,&TEXT(&I,2),DALUCS,1,C,(1,4)
         AIF   (&CEC#KEYDONE).ADVI09
         CECDYN DOKEY,&I,&KEY,&TEXT(&I,2),DALUFOLD,0
         AIF   (&CEC#KEYDONE).ADVI09
         CECDYN DOKEY,&I,&KEY,&TEXT(&I,2),DALUVRFY,0
         AIF   (&CEC#KEYDONE).ADVI09
         CECDYN DOKEY,&I,&KEY,&TEXT(&I,2),DALDCBDS,1,C,(1,44)
         AIF   (&CEC#KEYDONE).ADVI09
         CECDYN DOKEY,&I,&KEY,&TEXT(&I,2),DALDCBDD,1,C,(1,8)
         CECDYN DOKEY,&I,&KEY,&TEXT(&I,2),DALSUSER,1,C,(1,8)
         AIF   (&CEC#KEYDONE).ADVI09
         CECDYN DOKEY,&I,&KEY,&TEXT(&I,2),DALSHOLD,0
         AIF   (&CEC#KEYDONE).ADVI09
         CECDYN DOKEY,&I,&KEY,&TEXT(&I,2),DALMSVGP,1,C,(1,8)
         AIF   (&CEC#KEYDONE).ADVI09