CA     TITLE 'NASA/GSFC CATMAN/CAT -- CATLG MGNT (TSO) CMD PROCESSOR'
**
***********************************************************************
**
** THIS COMMAND PROCESSOR WAS DESIGNED AND DEVELOPED BY
**    J. SCHINDLER
**    COMPUTER SCIENCES CORP.
**    NASA, GODDARD SPACE FLIGHT CENTER
**    GREENBELT, MARYLAND
**
** UPDATED 10APR77, GENE CZARCINSKI, NASA/GSFC ...
**      . CHANGE CSECT NAME FROM 'GSFTSOCT' TO 'CATMAN' WITH
**        AN ENTRY POINT OF CAT (LMOD WILL HAVE ALIAS OF CAT)
**        ... MORE CONSISTANCY AND CLEANER CMDLIB
**
** UPDATED 15SEP80, BILL GODFREY, AFDSC/PENTAGON ...
**      . CALL IKJPARS THRU CVT POINTER INSTEAD OF LINK.
**      . USERS WITHOUT OPER ATTRIBUTE ARE NOW ALLOWED TO USE
**        QUOTED DSNAMES.  THE OLD RESTRICTION WAS REMOVED BECAUSE
**        USERS CAN EASILY BYPASS IT WITH MVS PROFILE NOPREFIX.
**      . ADD FIELDS 'PREFIX' AND 'PREFIXL' FOR PREFIXING DSNAMES,
**        AND INITIALIZE THEM FROM THE USER PROFILE TABLE.
**        ADD IKJUPT MAPPING MACRO. CHANGE ALL PREFIXING ROUTINES
**        TO USE PREFIX FIELDS INSTEAD OF USERID FIELDS AND TO
**        CHECK PREFIX LENGTH FOR ZERO.
**      . TEST FOR BATCH ENVIRONMENT, ALLOW ALL FUNCTIONS IN BATCH.
**      . ADDED ROUTINE TO MAKE THE DEFAULT UNIT EQUAL TO THE
**        UNIT TYPE OF THE VOLUME IF THE VOLUME IS DASD AND ONLINE.
**        HAD TO MOVE 'BAL-TO-INITUNIT' STATEMENTS SO THEY ARE
**        EXECUTED AFTER THE VOLUME FIELD IS FILLED IN.
**      . ADDED 3330V TO TABLE OF VALID UNIT NAMES, FOR MSS VOLUMES.
**
***********************************************************************
**
***********************************************************************
**
         MACRO
&NAME    CLEAR &VAR
         LCLC  &LENGTH
&LENGTH  SETC  'L'''
&NAME    MVI   &VAR,C' '
         AIF   (L'&VAR EQ 1).X1
         MVC   &VAR+1(&LENGTH&VAR-1),&VAR
.X1      ANOP
         MEND
         EJECT
**
**  SYMBOLICS
**
         GBLC  &CSECT
         LCLC  &BLDG,&BLDX,&DLTX,&BLDA,&DLTA,&CONNECT,&RELEASE
         LCLC  &RECATLG,&CATLG,&UNCATLG
         LCLA  &BLDGL,&BLDXL,&DLTXL,&BLDAL,&DLTAL
         LCLA  &CONECTL,&RELESEL,&RECATL,&CATL,&UNCATL
**
** CSECT NAME
**
&CSECT   SETC  'CATMAN'                                     GT02101
**
**
** ENTRY POINT NAMES
**
&BLDG    SETC  'BLDG'  BUILD A GENERATION INDEX
&BLDGL   SETA  4  MINIMUM LENGTH FOR UNIQUE NAME
&BLDX    SETC  'BLDX'  BUILD AN INDEX
&BLDXL   SETA  4
&DLTX    SETC  'DLTX'  DELETE AN INDEX
&DLTXL   SETA  4
&BLDA    SETC  'BLDA'  ASSIGN AN ALIAS
&BLDAL   SETA  4
&DLTA    SETC  'DLTA'  DELETE AN ALIAS
&DLTAL   SETA  4
&CONNECT SETC  'CONNECT' CONNECT A CONTROL VOLUME
&CONECTL SETA  2
&RELEASE SETC  'RELEASE' DISCONNECT A CONTROL VOLUME
&RELESEL SETA  3
&RECATLG SETC  'RECATLG' RECATALOG A DATA SET
&RECATL  SETA  3
&CATLG   SETC  'CATLG' CREATE INDEXES AND CATALOG A DATA SET
&CATL    SETA  2
&UNCATLG SETC  'UNCATLG' UNCATALOG A DATA SET AND DELETE INDICES
&UNCATL  SETA  1
**
**
         EJECT
&CSECT   CSECT
         ENTRY CAT                                          GT02101
**
** THIS CSECT USES THE 'INDEX' AND 'CATALOG' MACROS IN CONJUNCTION
** WITH THE APPROPRIATE  'CAMLST'       TO PERFORM THE VARIOUS CATALOG
** MANAGEMENT FUNCTIONS. A MORE DETAILED DESCRIPTION PRECEEDS EACH
** FUNCTION.
**
** CP ATTRIBUTES - NONE
**
** STANDARD IBM MACROS USED -
**       INDEX, CATALOG,         TPUT, TGET, GETMAIN, FREEMAIN,
**       EXTRACT, SAVE, RETURN, LINK, IKJPARS (VIA LINK)
**
**
** OTHER MACROS (CODING INCLUDED) -
**       CLEAR    - SET A VARIABLE TO BLANKS
         EJECT
**
**  REGISTER-EQUATES -
**
R0       EQU   0 WORK, SVC, ECT
R1       EQU   1 STANDARD LINKAGE, INTERNAL LINKAGE, AND WORK
R2       EQU   2 WORK
R3       EQU   3 WORK
R4       EQU   4 WORK
R5       EQU   5 WORK
R6       EQU   6 WORK
R7       EQU   7 WORK
R8       EQU   8 INTERNAL LINKAGE
R9       EQU   9 PARSE DESCRIPTOR LIST (PDL)
R10      EQU   10  BASE REG
R11      EQU   11  BASE REG
R12      EQU   12  BASE REG
R13      EQU   13  SAVE AREA ADDR
R14      EQU   14  STANDARD LINKAGE AND WORK
R15      EQU   15  STANDARD LINKAGE AND WORK
**
**  FLAGS -
**       1... .... - OPERATOR PRIVILEGES
**       .1.. .... - CONNECT WAS EXECUTED
**       ..1. .... - CVOL INIT SECTION ENTERED BEFORE
**       ...1 .... - CVOL DEFAULT
**       .... 1111 - NOT USED
**
OPERFLG  EQU   X'80'  OPERATOR PRIVILEGES
CONFLG   EQU   X'40'  CONNECT WAS EXECUTED
FRSTFLG  EQU   X'20'  FIRST TIME ENTERED
DFLTFLG1 EQU   X'10'  CVOL DEFAULT
**
         USING PDL,R9    R9 IS NOT DROPPED
         EJECT
**
**  SAVE
**
CAT      SAVE  (14,12),,&CSECT._GT02101_CATMAN/CAT
**
** SET UP BASE REGS
**
         LR    R10,R15
         USING &CSECT,R10,R11,R12
         LA    R11,2048
         AR    R11,R11
         LR    R12,R11
         AR    R12,R12
         AR    R11,R10
         AR    R12,R10
         ST    R13,SAVE+4
         LA    R2,SAVE
         ST    R2,8(R13)
         LR    R13,R2
**
** INIT CONSTANTS
**
         XC    FLAGS,FLAGS
         XC    ANSWER1,ANSWER1
         XC    ANSWER2,ANSWER2
         XC    CAMLST(CAMLSTL),CAMLST
**
** INIT PREFIX FOR UNQUOTED DSNAMES
**
         USING CPPL,R1
         L     R2,CPPLUPT          USER PROFILE TABLE
         USING UPT,R2
         SLR   R15,R15
         IC    R15,UPTPREFL        LENGTH OF PREFIX
         STH   R15,PREFIXL
         CLEAR PREFIX
         LTR   R15,R15             IS LENGTH ZERO
         BZ    NOPREFIX            YES, BRANCH
         BCTR  R15,0               LENGTH MINUS 1 FOR EX
         LA    R14,PREFIX
         B     *+10
         MVC   0(0,R14),UPTPREFX   (EXECUTED)
         EX    R15,*-6             COPY PREFIX FROM UPT
NOPREFIX EQU   *
         DROP  R2                  UPT
**
** INIT PARSE PARM LIST AND PARSE
**
         LA    R2,PARSEPL  LOAD ADDR OF PARSE PARM LIST
         USING PPL,R2
         MVC   PPLUPT,CPPLUPT  USER PROFILE TABLE
         MVC   PPLECT,CPPLECT  ENVIRONMENT CONTROL TABLE
         LA    R3,ECB
         ST    R3,PPLECB  EVENT CONTROL BLOCK
         LA    R3,ANSWER1
         ST    R3,PPLANS
         MVC   PPLCBUF,CPPLCBUF  COMMAND BUFFER
         XC    PPLUWA(4),PPLUWA  USER WORK AREA
         MVC   PPLPCL,=V(PCLPARM)  PARM CONTROL LIST
         XC    ECB,ECB
         LA    R1,PARSEPL
         L     R15,16              CVTPTR
         TM    524(R15),X'80'      IF HI ORDER BIT NOT ON
         BNO   PARSELNK               THEN DO LINK, NOT CALL
         L     R15,524(,R15)       CVTPARS
         BALR  R14,R15             CALL IKJPARS
         B     PARSERET            SKIP AROUND LINK
PARSELNK EQU   *
         LINK  EP=IKJPARS  LINK TO PARSE
PARSERET LTR   R15,R15  PARSE ERROR?
         BZ    CHKOPER  NO
         TPUT  PARSERR,L'PARSERR
         B     RETURN  PARSE ERROR, RETURN
         DROP  R1,R2               CPPL, PPL
**
** CHECK FOR OPER PRIVILEGES BY EXECUTING THE EXTRACT MACRO.
** THIS CHECK CAN BE BYPASSED BY ZAPPING THE NOP INSTRUCTION
** TO BRANCH UNCONDITIONALLY (X'F0').
**
CHKOPER  DC    0H'0'
         L     R9,ANSWER1  LOAD ADDR OF PDE
**
         NOP   GOTOFUNC  ZAP THIS NOP TO BYPASS OPER CHECK
**
         EXTRACT DWORK,FIELDS=(PSB)
         L     R3,DWORK  LOAD ADDR OF PSCB
         L     R1,548    PSAAOLD, CURRENT ASCB
         L     R1,60(,R1) ASCBTSB, PTR TO TERMINAL STATUS BLOCK
         LTR   R1,R1      IS THIS A TSO SESSION
         BZ    OPER       NO, ALLOW OPER FUNCTIONS IN BATCH
         XR    R2,R2
         IC    R2,7(R3)  GET LENGTH OF USER ID
         STH   R2,USERIDL  STORE USER ID LENGTH
         BCTR  R2,R0
         CLEAR USERID
         LA    R1,USERID
         EX    R2,MVCR1R3
         TM    16(R3),X'80'  CHECK FOR OPER PRIVILEGES
         BZ    GOTOFUNC  GO TO BRANCH TO FUNCTION
OPER     OI    OPERPRIV,OPERFLG
**
** SEARCH THE TABLE FOR THE FUNCTION AND BRANCH TO THE APPROPRIATE
** SECTION.
**
GOTOFUNC DC    0H'0'
         LA    R6,PARSFUNC  LOAD ADDR OF FUNCTION PDE
CHKFUNCT DC    0H'0'
         LH    R2,4(R6)  LOAD LENGTH OF FUNCTION NAME
         LR    R4,R2  SAVE LENGTH FOR COMPARE
         BCTR  R2,R0
         MVC   NAME(8),BLANKS
         LA    R1,NAME
         L     R3,0(R6)  LOAD ADDR OF FUNCTION NAME
         EX    R2,MVCR1R3  MOVE FUNCTION NAME
         LA    R1,FUNCTAB
         LA    R2,12
         LA    R3,FUNCTABE
         XR    R5,R5
LOOP1    DC    0H'0'
         IC    R5,0(R1)  GET MINIMUM LENGTH FOR COMPARE
         CR    R5,R4  USE MAXIMUM FOR COMPARE
         BNL   COMP
         LR    R5,R4
COMP     DC    0H'0'
         BCTR  R5,R0  FOR COMPARE
         EX    R5,COMPARE
*COMPARE CLC   NAME(0),4(R1)
         BE    GOTFUNC
         BXLE  R1,R2,LOOP1
         MVC   FUNCERRC,NAME  FUNCTION NAME NOT FOUND
         TPUT  FUNCERR,FUNCERRL  UNKNOWN FUNCTION, ---
         L     R1,=V(FUNCTPCL)
         BAL   R8,PRMTPARS  GO PROMPT FOR ANOTHER FUNCTION NAME
         L     R2,ANSWER2
         USING FUNCTPDL,R2
         LA    R6,NEWFUNCT
         DROP  R2
         B     CHKFUNCT
GOTFUNC  DC    0H'0'
         L     R2,0(R1)  LOAD ADDR OF THE SECTION
         BR    R2  GO DO IT
         DC    0F'0'
FUNCTAB  DC    AL1(&BLDGL),AL3(&BLDG),CL8'&BLDG'
         DC    AL1(&BLDXL),AL3(&BLDX),CL8'&BLDX'
         DC    AL1(&DLTXL),AL3(&DLTX),CL8'&DLTX'
         DC    AL1(&BLDAL),AL3(&BLDA),CL8'&BLDA'
         DC    AL1(&DLTAL),AL3(&DLTA),CL8'&DLTA'
         DC    AL1(&CONECTL),AL3(&CONNECT),CL8'&CONNECT'
         DC    AL1(&RELESEL),AL3(&RELEASE),CL8'&RELEASE'
         DC    AL1(&RECATL),AL3(&RECATLG),CL8'&RECATLG'
         DC    AL1(&CATL),AL3(&CATLG),CL8'&CATLG'
         DC    AL1(&UNCATL),AL3(&UNCATLG),CL8'&UNCATLG'
FUNCTABE EQU   *-12
         EJECT
***********************************************************************
**
**  BUILD A GENERATION INDEX (BLDG)
**
**
**   COMMAND -
**     CATMAN BLDG  'INDEX NAME LIST'  CVOL('VOL-SER LIST')
**             DELETE  EMPTY  ENTRIES('NO. OF GENERATION DATA GROUPS')
**
**     DEFAULTS - CVOL - SYSTEM RESIDENCE VOLUME, DELETE NOT SPECIFIED
**                (CAMLST ENTRY SET TO ZERO), EMPTY NOT SPECIFIED
**                (CAMLST ENTRY SET TO ZERO)
**
**
         DC    C'&CSECT-&BLDG'
&BLDG    DC    0H'0'
         TM    OPERPRIV,OPERFLG  DOES USER HAVE OPER?
         BO    BLDG1 YES
         MVC   OPERMSGC,USERID  NO, OUTPUT MSG
         TPUT  OPERMSG,OPERMSGL COMMAND NOT AUTHORIZED FOR ---
         B     RETURN
BLDG1    DC    0H'0'
         MVI   CAMFLG1,X'04' BLDG
         MVI   CAMFLG2,X'20'
         CLI   PARSDELT+1,0 WAS 'DELETE' SPECIFIED
         BZ    BLDG2  NO
         OI    CAMFLG3,X'40' INDICATE 'DELETE'
BLDG2    CLI   PARSEMPT+1,0 WAS 'EMPTY' SPECIFIED?
         BZ    BLDG2A  NO
         OI    CAMFLG3,X'08' INDICATE 'EMPTY'
BLDG2A   DC    0H'0'
         LH    R2,PARSENTR+4  LOAD LENGTH OF ENTRIES
         LTR   R2,R2  IS IT ZERO?
         BNZ   BLDG4  NO, GO CONVERT TO BINARY
BLDG3    DC    0H'0'
         L     R1,=V(ENTRPCL)
         BAL   R8,PRMTPARS  GO LET PARSE PROMPT FOR NO. OF ENTRIES
         L     R2,ANSWER2
         USING ENTRPDL,R2
         LA    R3,PARSENTR
         MVC   0(8,R3),NEWENTR  MOVE NEW PDE TO OLD PDE
         DROP  R2
BLDG4    DC    0H'0'
         LH    R2,PARSENTR+4 LOAD LENGTH
         BCTR  R2,R0
         L     R1,PARSENTR
         EX    R2,PACK
*PACK    PACK  DWORK,0(0,R1)
         CVB   R2,DWORK
         CH    R2,=H'255'  IS NO. OF ENTRIES GREATER THAN 255?
         BNH   BLDG5  NO
         TPUT  MAXENTRS,L'MAXENTRS  MAX ENTRIES EXCEEDED
         B     BLDG3  GO PROMPT FOR NO. OF ENTRIES
BLDG5    STC   R2,CAMOPT3 STORE NO. OF ENTRIES
         B     BLDXSTRT  GO TO BLDX
**
** THE REST OF THE CAMLST WILL BE FILLED IN BY BLDX SECTION SINCE THE
** LOGIC AFTER THE INITIALIZATION IS THE SAME FOR BOTH BLDX AND BLDG.
**
         EJECT
***********************************************************************
**
**  BUILD A NEW INDEX STRUCTURE (BLDX)
**
**
**   COMMAND -
**     CATMAN BLDX  'INDEX NAME LIST'  CVOL('VOL-SER LIST')
**
**     DEFAULTS - CVOL - SYSTEM RESIDENCE VOL UNLESS DFLTCVOL CSECT
**                       CONTAINS A VOL-SER.
**
         DC    C'&CSECT-&BLDX'
&BLDX    DC    0H'0'
         MVI   CAMFLG1,X'04'  BLDX
         MVI   CAMFLG2,X'40'
BLDXSTRT DC    0H'0'
         LA    R5,PARSNAME LOAD ADDR OF INDEX
BLDXCVOL DC    0H'0'
         BAL   R8,INITCVOL  GO INIT CAMLST CVOL
BLDXNAME DC    0H'0'  PROCESS INDEX
         LH    R2,4(R5) LOAD LENGTH OF INDEX
         LTR   R2,R2  IS LENGTH = 0?
         BNZ   BLDX3     NO
         LA    R14,CINDEX
         LA    R15,NOTVALD
         XR    R1,R1  PREFIX USER ID IF NOT IN QOUTES
         BAL   R8,MSGOUT   INDEX ---  NOT VALID
         B     RETURN  ERROR,  RETURN
BLDX3    DC    0H'0'
         CLEAR NAME
         TM    6(R5),X'40'  DSNAME/INDEX IN QUOTES?
         BZ    BLDX5     NO
*        TM    OPERPRIV,OPERFLG   OPER PRIVILEGES?
*        BO    BLDX4     YES
*        LA    R14,CINDEX
*        LA    R15,INQOTMSG
*        XR    R1,R1  PREFIX USER ID IF NOT IN QOUTES
*        BAL   R8,MSGOUT  INDEX --- IN QUOTES
*        TPUT  NOTAUTMS,L'NOTAUTMS
*        B     RETURN  ERROR,  RETURN
BLDX4    DC    0H'0'
         LH    R2,4(R5)      LOAD LENGTH OF INDEX
         BCTR  R2,R0
         L     R3,0(R5)    LOAD ADDR OF INDEX
         LA    R1,NAME
         EX    R2,MVCR1R3  MOVE INDEX INTO NAME
         B     BLDX6
BLDX5    DC    0H'0'
         LH    R2,PREFIXL  LOAD LENGTH OF PREFIX
         LTR   R2,R2
         BZ    BLDX4       NOPREFIX
         BCTR  R2,R0
         LA    R1,NAME
         LA    R3,PREFIX
         EX    R2,MVCR1R3  MOVE IN PREFIX
         LA    R1,1(R1,R2)
         MVI   0(R1),C'.'
         LA    R1,1(R1)
         LH    R2,4(R5)  LOAD LENGTH OF INDEX
         BCTR  R2,R0
         L     R3,0(R5)  LOAD ADDR OF INDEX
         EX    R2,MVCR1R3  MOVE IN REST OF INDEX
BLDX6    DC    0H'0'
         LA    R1,NAME
         ST    R1,CAMPARM2 INIT CAMLST
         INDEX CAMLST   GO CREATE INDEX
         LTR   R15,R15  ANY ERRORS?
         BZ    BLDX10     NO
         ST    R15,SAVER15
         LA    R14,BLDXERR
         LA    R15,SPECBLNK
         XR    R1,R1
         BAL   R8,MSGOUT
         L     R15,SAVER15
         BAL   R8,INDEXERR  YES, GO OUTPUT MSG
         B     RETURN
BLDX10   DC    0H'0'
         LA    R14,C1INDEX
         LA    R15,BUILT
         XR    R1,R1
         BAL   R8,MSGOUT INDEX --- BUILT
         CLI   24(R5),X'FF' LAST INDEX IN LIST?
         BE    RETURN  YES,  FINISHED WITH BLDX
         L     R5,24(R5)  LOAD ADDR OF NEXT PDE
         B     BLDXNAME
         EJECT
***********************************************************************
**
** DELETE AN INDEX (DLTX)
**
**
**   COMMAND -
**     CATMAN DLTX 'INDEX NAME LIST' CVOL('VOL-SER LIST')
**
**     DEFAULTS - CVOL - SYSTEM RESIDENCE VOLUME UNLESS DFLFCVOL CSECT
**                       CONTAINS A VOL-SER.
**
         DC    C'&CSECT-&DLTX'
&DLTX    DC    0H'0'
         MVI   CAMFLG1,X'04'
         MVI   CAMFLG2,X'04'
         LA    R2,NAME
         ST    R2,CAMPARM2
         LA    R5,PARSNAME  LOAD ADDR OF INDEX NAME
DLTXCVOL DC    0H'0'
         BAL   R8,INITCVOL  GO INIT CAMLST CVOL
DLTXNAME DC    0H'0'   PROCESS INDEX NAME
         LH    R2,4(R5) LOAD LENGTH OF INDEX
         LTR   R2,R2   IS IT ZERO?
         BNZ   DLTX2     NO
         LA    R14,CINDEX
         LA    R15,NOTVALD
         XR    R1,R1
         BAL   R8,MSGOUT  INDEX NAME  ---  NOT VALID
         B     RETURN
DLTX2    DC    0H'0'
         TM    6(R5),X'40' INDEX IN QUOTES?
         BO    DLTX3     YES
         CLEAR NAME
         LH    R2,PREFIXL  LOAD LENGTH OF PREFIX
         LTR   R2,R2
         BZ    DLTX4       NOPREFIX
         BCTR  R2,R0
         LA    R3,PREFIX LOAD ADDR OF PREFIX
         LA    R1,NAME
         EX    R2,MVCR1R3
         LA    R1,1(R1,R2)
         MVI   0(R1),C'.'
         LA    R1,1(R1)
         LH    R2,4(R5)  LOAD LENGTH OF INDEX
         BCTR  R2,R0
         L     R3,0(R5)  LOAD ADDR OF INDEX
         EX    R2,MVCR1R3
         B     DLTXINDX
DLTX3    DC    0H'0'
*        TM    OPERPRIV,OPERFLG USER HAVE OPER PRIVILEGES?
*        BO    DLTX4     YES
*        LA    R14,CINDEX
*        LA    R15,INQOTMSG
*        XR    R1,R1
*        BAL   R8,MSGOUT  INDEX NAME --- INQOUTES
*        TPUT  NOTAUTMS,L'NOTAUTMS  USER NOT AUTHORIZED
*        B     RETURN
DLTX4    DC    0H'0'
         CLEAR NAME
         LH    R2,4(R5)  LOAD LENGTH OF INDEX
         BCTR  R2,R0
         L     R3,0(R5)  LOAD ADDR OF INDEX
         LA    R1,NAME
         EX    R2,MVCR1R3  MOVE INDEX NAME
DLTXINDX INDEX CAMLST   DELETE INDEX
         LTR   R15,R15  ANY ERRORS?
         BZ    DLTX5     NO
         ST    R15,SAVER15
         LA    R14,DLTXERR
         LA    R15,SPECBLNK
         XR    R1,R1
         BAL   R8,MSGOUT
         L     R15,SAVER15
         BAL   R8,INDEXERR  GO OUTPUT ERROR MSG
         B     RETURN
DLTX5    DC    0H'0'
         LA    R14,C1INDEX
         LA    R15,DELETED
         XR    R1,R1
         BAL   R8,MSGOUT
         CLI   24(R5),X'FF' ANY MORE INDEX NAMES?
         BE    RETURN    NO
         L     R5,24(R5)  GET ADDR OF NEXT PDE
         B     DLTXCVOL  GO USE NEXT CVOL
         EJECT
***********************************************************************
**
**  ASSIGN AN ALIAS (BLDA)
**
**
**   COMMAND -
**     CATMAN BLDA 'DSNAME LIST' CVOL('VOL-SER LIST')
**              ALIAS('ALIAS NAME LIST')
**
**     DEFAULTS - CVOL - SYSTEM RESIDENCE VOLUME UNLESS DFLTCVOL CSECT
**                       CONTAINS A VOL-SER.
**
**
         DC    C'&CSECT-&BLDA'
&BLDA    DC    0H'0'
         TM    OPERPRIV,OPERFLG  DOES USER HAVE OPER PRIVILEGES?
         BO    BLDA1     YES
         MVC   OPERMSGC,USERID  NO, CANT USE IT
         TPUT  OPERMSG,OPERMSGL  COMMAND NOT AUTHORIZED FOR ---
         B     RETURN
BLDA1    DC    0H'0'
         MVI   CAMFLG1,X'44' INIT CAMLST FOR BLDA
         MVI   CAMFLG2,X'10'
         LA    R2,NAME
         ST    R2,CAMPARM2
         LA    R2,ALIAS
         ST    R2,CAMPARM4
         LA    R5,PARSNAME
         LA    R6,PARSALIS
BLDACVOL DC    0H'0'
         BAL   R8,INITCVOL  GO INIT CAMLST CVOL
         LH    R2,4(R6)  LOAD LENGTH OF ALIAS NAME
         LTR   R2,R2  WAS AN ALIAS SUPPLIED?
         BNZ   BLDA2     YES
         L     R1,=V(ALIASPCL)
         BAL   R8,PRMTPARS  GO LET PARSE PROMPT FOR ALIAS
         L     R2,ANSWER2
         USING ALIASPDL,R2
         MVC   0(8,R6),NEWALIAS  OVERLAY OLD PDE WITH NEW
         DROP  R2
         LH    R2,4(R6)  LOAD LENGTH OF ALIAS NAME
BLDA2    BCTR  R2,R0
         L     R3,0(R6)  LOAD ADDR OF ALIAS NAME
         LA    R1,ALIAS
         CLEAR ALIAS
         EX    R2,MVCR1R3  MOVE IN ALIAS NAME
BLDANAME DC    0H'0'
         LH    R2,4(R5)  LOAD LENGTH OF DSNAME
         LTR   R2,R2  IS DSNAME INPUT?
         BNZ   BLDA3     YES
         LA    R14,DSNMSG  NO, OUTPUT MSG
         LA    R15,NOTVALD
         XR    R1,R1
         BAL   R8,MSGOUT  DATA SET NAME --- NOT VALID
         B     RETURN
BLDA3    DC    0H'0'
         BCTR  R2,R0
         CLEAR NAME
         L     R3,0(R5)
         LA    R1,NAME
         EX    R2,MVCR1R3
         INDEX CAMLST  BLDA
         LTR   R15,R15  ANY ERRORS?
         BZ    BLDA4     NO
         ST    R15,SAVER15
         MVC   BLDAERRC,ALIAS
         LA    R14,BLDAERR
         LA    R15,SPECBLNK
         LA    R1,4
         BAL   R8,MSGOUT
         L     R15,SAVER15
         BAL   R8,INDEXERR   GO PROCESS ERROR
         B     RETURN  ERROR, DONT KNOW WHY, SO RETURN
BLDA4    DC    0H'0'
         MVC   BLDAMSGC,ALIAS
         LA    R14,BLDAMSG
         LA    R15,SPECBLNK
         LA    R1,4
         BAL   R8,MSGOUT
         CLI   24(R5),X'FF' ANY MORE DSNAMES?
         BE    RETURN   NO, RETURN
         L     R5,24(R5)  YES, USE NEXT PDE
         CLI   8(R6),X'FF' ANY MORE ALIAS NAMES?
         BE    BLDA5  NO, ERROR
         L     R6,8(R6)
         B     BLDACVOL
BLDA5    DC    0H'0'
         TPUT  ALIASERR,L'ALIASERR  NOT ENOUGH ALIAS NAMES IN LIST
         B     RETURN
         EJECT
***********************************************************************
**
**  DELETE AN ALIAS (DLTA)
**
**
**   COMMAND -
**     CATMAN DLTA 'ALIAS LIST' CVOL('VOL-SER LIST')
**
**     DEFAULTS - CVOL - SYSTEM RESIDENCE VOLUME UNLESS DFLTCVOL CSECT
**                       CONTAINS A VOL-SER.
**
**
         DC    C'&CSECT-&DLTA'
&DLTA    DC    0H'0'
         TM    OPERPRIV,OPERFLG  USER HAVE OPER PRIVILEGES?
         BO    DLTA1     YES
         MVC   OPERMSGC,USERID
         TPUT  OPERMSG,OPERMSGL  COMMAND NOT AUTHORIZED FOR ---
         B     RETURN
DLTA1    DC    0H'0'
         MVI   CAMFLG1,X'04'  INIT CAMLST FOR DLTA
         MVI   CAMFLG2,X'01'
         LA    R2,NAME
         ST    R2,CAMPARM2
         LA    R5,PARSNAME  LOAD ADDR OF PDE
DLTACVOL DC    0H'0'
         BAL   R8,INITCVOL
DLTANAME DC    0H'0'
         LH    R2,4(R5)  LOAD LENGTH OF ALIAS NAME
         LTR   R2,R2  IS IT ZERO?
         BNZ   DLTA2     NO
         LA    R14,ALIASMSG
         LA    R15,NOTVALD
         XR    R1,R1
         BAL   R8,MSGOUT  ALIAS NAME --- NOT VALID
         B     RETURN
DLTA2    BCTR  R2,R0
         L     R3,0(R5) LOAD ADDR OF ALIAS NAME
         LA    R1,NAME
         CLEAR NAME
         EX    R2,MVCR1R3
         INDEX CAMLST
         LTR   R15,R15  ANY ERRORS?
         BZ    DLTA3     NO
         ST    R15,SAVER15
         LA    R14,DLTAERR
         LA    R15,SPECBLNK
         LA    R1,4
         BAL   R8,MSGOUT
         L     R15,SAVER15
         BAL   R8,INDEXERR  GO PROCESS ERROR
         B     RETURN
DLTA3    DC    0H'0'
         LA    R14,DLTAMSG
         LA    R15,DELETED
         LA    R1,4
         BAL   R8,MSGOUT
         CLI   24(R5),X'FF'   MORE ALIAS NAMES ?
         BE    RETURN  NO, RETURN
         L     R5,24(R5)  YES, GO PROCESS NEXT NEXT ALIAS
         B     DLTACVOL
         EJECT
***********************************************************************
**
**  CONNECT A CONTROL VOLUME
**
**
**   COMMAND -
**     CATMAN CONNECT 'INDEX NAME LIST' CVOL('VOL-SER')
**             VOL('VOL-SER')      UNIT('NAME')
**
**     DEFAULTS - CVOL - SYSTEM RESIDENCE VOLUME,UNLESS DFLTCVOL CSECT
**                       CONTAINS A VOL-SER.
**                UNIT - NONE,UNLESS DFLTUNIT CSECT CONTAINS A DEVICE
**                       TYPE NAME
**
         DC    C'&CSECT-&CONNECT'
&CONNECT DC    0H'0'
         TM    OPERPRIV,OPERFLG  DOES USER HAVE OPER PRIVILEGES
         BO    CONN1     YES
         MVC   OPERMSGC,USERID
         TPUT  OPERMSG,OPERMSGL  COMMAND NOT AUTHORIZED FOR ---
         B     RETURN  GO RETURN
CONN1    DC    0H'0'
         MVI   CAMFLG1,X'44'  INIT CAMLST FLAGS
         MVI   CAMFLG2,X'08'
         LA    R2,NAME
         ST    R2,CAMPARM2
         LA    R2,DEVCODE
         ST    R2,CAMPARM4
         LA    R5,PARSNAME
*        BAL   R8,INITUNIT  GO INIT CAMLST DEVICE CODE
         BAL   R8,INITCVOL  GO INIT CAMLST CVOL
         LA    R6,PARSVOL
         LH    R2,4(R6)  LOAD LENGTH OF VOL-SER
         LTR   R2,R2  IS IT ZERO?
         BNZ   CONN2     NO
         L     R1,=V(VOLPCL)
         BAL   R8,PRMTPARS  GO LET PARSE PROMPT FOR VOL
         L     R2,ANSWER2
         USING VOLPDL,R2
         LA    R6,NEWVOL   USE NEW VOLUME
         DROP  R2
         LH    R2,4(R6)
CONN2    DC    0H'0'
         BCTR  R2,R0
         L     R3,0(R6)  LOAD ADDR OF VOL
         LA    R1,VOL
         CLEAR VOL
         EX    R2,MVCR1R3  MOVE IN VOLUME
         BAL   R8,INITUNIT  GO INIT CAMLST DEVICE CODE
CONNNAME DC    0H'0'
         LH    R2,4(R5)  LOAD LENGTH OF INDEX
         LTR   R2,R2   IS IT ZERO?
         BNZ   CONN3     NO
         LA    R14,CINDEX
         LA    R15,NOTVALD
         XR    R1,R1
         BAL   R8,MSGOUT  INDEX NAME --- NOT VALID
         B     RETURN
CONN3    DC    0H'0'
         BCTR  R2,R0
         L     R3,0(R5) LOAD ADDR OF INDEX
         LA    R1,NAME
         CLEAR NAME
         EX    R2,MVCR1R3  MOVE INDEX
         INDEX CAMLST   CONNECT
         LTR   R15,R15  ANY ERRORS?
         BZ    CONN6     NO
         ST    R15,SAVER15
         MVC   CONNERC1,VOL  MOVE IN VOL ID
         L     R2,CAMPARM3  LOAD ADDR OF CVOL
         LTR   R2,R2   SYS RES SPECIFIED?
         BNZ   CONN4     NO
         MVC   CONNERC2,=C'SYS RES'
         B     CONN5
CONN4    CLEAR CONNERC2
         MVC   CONNERC2(6),0(R2)  MOVE IN CVOL
CONN5    LA    R14,CONNERR
         LA    R15,SPECBLNK
         LA    R1,4
         BAL   R8,MSGOUT
         L     R15,SAVER15
         BAL   R8,INDEXERR  GO PROCESS ERROR
         B     RETURN
CONN6    DC    0H'0'
         MVC   CONNMSC1,VOL
         L     R2,CAMPARM3
         LTR   R2,R2
         BNZ   CONN7
         MVC   CONNMSC2,=C'SYS RES'
         B     CONN8
CONN7    CLEAR CONNMSC2
         MVC   CONNMSC2(6),0(R2)
CONN8    LA    R14,CONNMSG
         LA    R15,SPECBLNK
         LA    R1,4
         BAL   R8,MSGOUT
         CLI   24(R5),X'FF'  LAST INDEX IN LIST
         BE    RETURN  YES, RETURN
         L     R5,24(R5)
         B     CONNNAME   GO PROCESS ANOTHER CONNECT
         EJECT
***********************************************************************
**
**  DISCONNECT TWO CONTROL VOLUMES
**
**
**   COMMAND -
**     CATMAN RELEASE 'INDEX NAME LIST' CVOL('VOL-SER')
**
**     DEFAULTS - CVOL - SYSTEM RESIDENCE, UNLESS DFLTCVOL CSECT
**                       CONTAINS A VOL-SER.
**
         DC    C'&CSECT-&RELEASE'
&RELEASE DC    0H'0'
         TM    OPERPRIV,OPERFLG  DOES USER HAVE OPER PRIVILEGES?
         BO    RLSE1     YES
         MVC   OPERMSGC,USERID
         TPUT  OPERMSG,OPERMSGL  COMMAND NOT AUTHORIZED FOR ---
         B     RETURN
RLSE1    DC    0H'0'
         MVI   CAMFLG1,X'04'  INIT CAMLST FLAGS FOR RELEASE
         MVI   CAMFLG2,X'00'
         MVI   CAMFLG3,X'80'
         LA    R2,NAME
         ST    R2,CAMPARM2
         BAL   R8,INITCVOL  GO INIT CAMLST CVOL ENTRY
         LA    R5,PARSNAME
RLSENAME DC    0H'0'
         LH    R2,4(R5)  LOAD LENGTH OF INDEX
         LTR   R2,R2  IS IT ZERO?
         BNZ   RLSE2     NO
         LA    R14,CINDEX
         LA    R15,NOTVALD
         XR    R1,R1
         BAL   R8,MSGOUT  INDEX NAME --- NOT VALID
         B     RETURN
RLSE2    DC    0H'0'
         BCTR  R2,R0
         L     R3,0(R5)  LOAD ADDR OF INDEX
         LA    R1,NAME
         CLEAR NAME
         EX    R2,MVCR1R3  MOVE INDEX
         INDEX CAMLST
         LTR   R15,R15  ANY ERRORS?
         BZ    RLSE3     NO
         ST    R15,SAVER15
         CLEAR RLSERR2C
         L     R2,CAMPARM3
         LTR   R2,R2
         BNE   RLSE2A
         MVC   RLSERR2C,=C'SYS RES'
         B     RLSE2B
RLSE2A   MVC   RLSERR2C(6),0(2)
RLSE2B   LA    R14,RLSERR1
         LA    R15,RLSERR2
         LA    R1,4
         BAL   R8,MSGOUT
         L     R15,SAVER15
         BAL   R8,INDEXERR  GO PROCESS ERROR
         B     RETURN
RLSE3    DC    0H'0'
         MVC   RLSEMSGC,NAME
         CLEAR RLSEMSGD
         L     R2,CAMPARM3
         LTR   R2,R2
         BNZ   RLSE4
         MVC   RLSEMSGD,=C'SYS RES'
         B     RLSE5
RLSE4    MVC   RLSEMSGD(6),0(R2)
RLSE5    DC    0H'0'
         TPUT  RLSEMSG,RLSEMSGL  INDEX --- RELEASED FROM CVOL ---
         CLI   24(R5),X'FF'  LAST INDEX IN LIST?
         BE    RETURN  YES, RETURN
         L     R5,24(R5)
         B     RLSENAME  GO DISCONNECT
         EJECT
***********************************************************************
**
**  RECATALOG A DATA SET (RECATLG)
**
**
**   COMMAND -
**     CATMAN RECATLG ('DSNAME LIST') CVOL('VOL-SER')
**            VOL('VOL-SER LIST')
**           UNIT('UNIT')  SEQNO('NO. LIST')
**
**     DEFAULTS - CVOL - SYSTEM RESISDENCE UNLESS DFLTCVOL CSECT
**                       CONTAINS A VOL-SER.
**                UNIT - NONE, UNLESS DFLTUNIT CSECT CONTAINS A UNIT.
**                SEQNO- TAPE - 01, OTHER - 00
**
         DC    C'&CSECT-&RECATLG'
&RECATLG DC    0H'0'
         MVI   CAMFLG1,X'54'  RECATALOG
         MVI   CAMFLG2,X'00'
         B     CATSTART
**
** SINCE THE LOGIC FOR RECAT IS THE SAME FOR CATALOG, BRANCH
** TO CATALOG SECTION.
         EJECT
***********************************************************************
**
**  BUILD INDEXES AND CATALOG (CATLG)
**
**
**   COMMAND -
**     CATMAN CATLG ('DSNAME LIST') CVOL('VOL-SER')
**            VOL('SVOL-SER LIST')
**            UNIT('UNIT')  SEQNO('SEQUENCE NO. LIST')
**
**     DEFAULTS - CVOL - SYSTEM RESIDENCE UNLESS DFLTCVOL CSECT
**                       CONTAINS A VOL-SER.
**                UNIT - NONE, UNLESS DFLTUNIT CSECT CONTAINS A UNIT.
**                SEQNO- TAPE - 01, OTHERS - 00
**
         DC    C'&CSECT-&CATLG'
&CATLG   DC    0H'0'
         MVI   CAMFLG1,X'64'  CATBX
         MVI   CAMFLG2,X'40'
CATSTART DC    0H'0'
         LA    R5,PARSNAME
         LA    R2,NAME
         ST    R2,CAMPARM2
         LA    R2,VOLNO
         ST    R2,CAMPARM4
         BAL   R8,INITCVOL  GO INIT CAMLST CVOL ENTRY
*        BAL   R8,INITUNIT GO GET DEVICE CODE  (DEVCODE)
         LA    R6,PARSVOL
         LA    R7,PARSSEQN  LOAD ADDR OF SEQ. NO. PDE
         LH    R2,4(R6)  LOAD LENGTH OF VOL-SER
         LTR   R2,R2  IS IT ZERO?
         BNZ   CAT14     NO, GO CHECK FOR MORE THAN ONE VOL-SER
         L     R1,=V(VOLPCL)
         BAL   R8,PRMTPARS  GO LET PARSE PROMPT FOR VOL-SER
         L     R2,ANSWER2
         USING VOLPDL,R2
         LA    R6,NEWVOL
         DROP  R2
CAT1     LH    R2,4(R6)
         L     R3,0(R6)
         LA    R1,VOL
         BCTR  R2,R0
         CLEAR VOL
         EX    R2,MVCR1R3  VOL-SER OF CATALOGED DATA SET
         BAL   R8,INITUNIT GO GET DEVICE CODE  (DEVCODE)
         LA    R1,1
         STH   R1,VOLNO   NO OF VOLUMES
         LH    R2,4(R7)  LOAD LENGTH OF SEQ. NO.
         LTR   R2,R2  IS IT ZERO?
         BZ    CAT2      YES
         BCTR  R2,R0
         L     R1,0(R7) LOAD ADDR OF SEQ NO
         EX    R2,PACK
         CVB   R2,DWORK
         STH   R2,SEQNO
         B     CAT4
CAT2     DC    0H'0'
         CLI   DEVCODE+2,X'80' IS UNIT TAPE?
         BE    CAT3      YES
         XC    SEQNO,SEQNO  ZERO SEQ. NO. (DEFAULT FOR NOT TAPE)
         B     CAT4