         TITLE ' D I S P L A Y   ( M V S )  '
************************************************************
*                                                          *
*        'DISPLAY' TSO COMMAND                             *
*                                                          *
************************************************************
         SPACE
*        DATE UPDATED. SEPTEMBER 21 1981.
*        ATTRIBUTES. RE-ENTRANT.
*        NOTES.
*            THIS TSO COMMAND DISPLAYS INFORMATION FOR
*            SYSTEMS SUPPORT SUCH AS UCB'S, VIRTUAL
*            ADDRESSES, LPA DIRECTORY ENTRIES, SVC'S,
*            AND ENTRIES IN THE BLDL LIST.
*            (THE BLDL ROUTINE DEPENDS ON A CODED OFFSET).
*            UPDATES...
*            28AUG80 - ADDED DEVICE TYPE IN DASD VOLUME DISPLAY.
*                      ADDED FIELD W5STYPE.
*            29OCT80 - CHANGED BLDL OFFSET TO '58' (WAS 4C).
*                      ADDED SVCTABLE LOCATION TO SVC DISPLAY.
*            21SEP81 - ADDED 'SHARED' TO DASD DISPLAY.
         SPACE
         MACRO
&NAME    CONV  &IN,&OUT,&LEN
         LCLC  &L
&L       SETC  'L'''
&NAME    LA    R1,&IN
         AIF   (T'&LEN EQ 'O').DEFLEN
         LA    R14,&LEN
         AGO   .OUTLOC
.DEFLEN  LA    R14,&L&OUT
.OUTLOC  LA    R15,&OUT
         BAL   R2,CONVERTB
         MEND
         SPACE 2
         MACRO
&NAME    ACON  &IN,&OUT,&OFFSET=2
         AIF   ('&IN'(1,1) EQ '(').XREG
&NAME    UNPK  WCONDATA,&IN
         AGO   .XGEN
.XREG    ANOP
&NAME    ST    &IN(1),WDOUBLE
         UNPK  WCONDATA,WDOUBLE(5)
.XGEN    TR    WCONDATA(8),TRANS1
         AIF   (T'&OFFSET EQ 'O').XMOVE
         MVC   &OUT,WCONDATA+&OFFSET
         MEXIT
.XMOVE   MVC   &OUT,WCONDATA
         MEND
         SPACE 2
         MACRO
&NAME    FCON  &IN,&OUT
&NAME    ACON  &IN,&OUT,OFFSET=
         MEND
         SPACE 2
         MACRO
&NAME    LINE2
&NAME    MVC   WLINE2,XBLANKS           BLANK HEADER LINE #2
         MVC   WLINE2(4),=Y(L'WLINE2,0) MSG HEADER
         MVI   WLINE2+5,C'*'            SET-UP HEADER LINE
         MVI   WLINE2+14,C'*'
         MEND
         SPACE 2
         MACRO
         TRANS &O,&M
         ORG   TRANS3+&O
         DC    &M.AL1(*-TRANS3)
         MEND
         EJECT
         MACRO
&NAME    ZCHK  &R,&L,&B,&BC=Z
&NAME    L     &R,&L
         LA    &R,0(&R)
         LTR   &R,&R
         B&BC  &B
         MEND
         SPACE 2
         MACRO
&NAME    PCHK  &R,&L,&B
&NAME    ZCHK  &R,&L,&B,BC=P
         MEND
         SPACE 2
         MACRO
&NAME    EDST  &V,&F
&NAME    L     R0,&V
         CVD   R0,WDOUBLE
         MVC   &F,XPAT1
         ED    &F,WDOUBLE+5
         MEND
         SPACE 2
         MACRO
&NAME    EDR   &R,&F
&NAME    CVD   &R,WDOUBLE
         MVC   &F,XPAT1
         ED    &F,WDOUBLE+5
         MEND
         EJECT
DISPLAY  CSECT
         USING *,R11,R12
         B     32(,R15)
         DC    AL1(7),CL7'DISPLAY'
         DC    CL4' 3.0'
         DC    CL16' &SYSDATE &SYSTIME '
         STM   14,12,12(R13)
         LR    R11,R15
         LA    R14,1
         LA    R12,4095(R14,R11)
         LR    R10,R1
         USING CPPL,R10
         GETMAIN R,LV=WORKLEN
         XC    0(256,R1),0(R1)
         MVC   256(WORKLEN-256,R1),0(R1)
         ST    R13,4(,R1)
         ST    R1,8(,R13)
         LR    R13,R1
         USING WORKAREA,R13
         SPACE
************************************************************
*                                                          *
*        SET UP IOPL FOR PUTLINE                           *
*                                                          *
************************************************************
         SPACE
         LA    R15,WIOPL
         USING IOPL,R15
         MVC   IOPLUPT(4),CPPLUPT
         MVC   IOPLECT(4),CPPLECT
         LA    R0,WECB
         ST    R0,IOPLECB
         XC    WECB,WECB
         LA    R0,WPTPB
         ST    R0,IOPLIOPB
         XC    WPTPB(12),WPTPB
         DROP  R15                 IOPL
         EJECT
************************************************************
*                                                          *
*        SET UP PPL FOR PARSE                              *
*                                                          *
************************************************************
         SPACE
         LA    R15,WPPL
         USING PPL,R15
         MVC   PPLUPT(4),CPPLUPT
         MVC   PPLECT(4),CPPLECT
         LA    R0,WECB
         ST    R0,PPLECB
         XC    WECB,WECB
         L     R0,=A(DISPPCL)
         ST    R0,PPLPCL
         LA    R0,WANS
         ST    R0,PPLANS
         MVC   PPLCBUF(4),CPPLCBUF
         XC    PPLUWA(4),PPLUWA
         DROP  R15                 PPL
         SPACE 1
         DROP  R10                 CPPL
         SPACE
         MVI   WSW,0                    CLEAR SWITCH
         MVI   WLINEB,C' '              CLEAR PRINT LINE
         MVC   WLINED,WLINEB
         MVC   WFILLER,XBLANKS          SET DEFAULT FILLER
*
         LA    R0,WDBLKLEN              PUTLINE DATA BLOCK LENGTH
         GETMAIN R,LV=(0)               GET THE BLOCK
         ST    R1,WDBLK                 SAVE START
         LR    R3,R1                    ALSO PLACE IN WORK REGISTER
         LA    R4,WDBLKENT              LINE LENGTH
         LR    R5,R3                    DATA START
         AL    R5,=A(WDBLKLEN-1)        + LENGTH - 1 = END
         STM   R3,R5,WDBLKA             SAVE CONTROL REGISTERS
         LR    R2,R3                    DATA START
         LA    R3,0(R3,R4)              LINE # 2
INDBLK   ST    R3,0(R2)                 CONNECT DATA LINES
         LR    R2,R3                    CURRENT LINE
         BXLE  R3,R4,INDBLK             GET NEXT LINE
         XC    0(4,R2),0(R2)            LAST LINE
*
*        GET ADDRESS OF PUTLINE INTO WPUTL
*
         L     R15,CVTPTR               CVTPTR
         TM    444(R15),X'80'           IS PUTLINE LOADED?
         BNO   LOADPUTL                 NO - BRANCH
         L     R0,444(,R15)             YES - GET CVTPUTL
         B     SAVEPUTL                 BRANCH AROUND LOAD
LOADPUTL EQU   *
         LOAD  EPLOC=LPUTL              LOAD PUTLINE
SAVEPUTL ST    R0,WPUTL                 SAVE ENTRY POINT
         SPACE 1
************************************************************
*                                                          *
*        CALL THE PARSE SERVICE ROUTINE                    *
*                                                          *
************************************************************
         SPACE 1
         XC    WECB,WECB                CLEAR ECB
         LA    R1,WPPL             POINT TO PPL
         L     R15,CVTPTR          CVTPTR
         TM    524(R15),X'80'      IF HI ORDER BIT NOT ON
         BNO   PARSELNK               THEN DO LINK, NOT CALL
         L     R15,524(,R15)       CVTPARS
         BALR  R14,R15             CALL IKJPARS
         B     PARSEEXT            SKIP AROUND LINK
PARSELNK EQU   *
         LINK  SF=(E,LPARSE),MF=(E,(1))
PARSEEXT EQU   *
         SPACE 1
         LTR   R15,R15                  SUCCESS?
         BNZ   ERRPARSE                 NO, ERROR
         L     R10,WANS                 YES, GET RESULT
         USING IKJPARMD,R10
         EJECT
************************************************************
*                                                          *
*        'TCBADDR(TASKNAME)' SPECIFIED                     *
*                                                          *
************************************************************
         SPACE
TCBCHK   CLI   PTYPE+1,1                TCB ADDRESS?
         BNE   QCBCHK                   NO, CHECK FOR QCB REQUEST
         B     RETURN
*          LA    R9,PDTCBA                YES, SET FOR FIRST PDE
*          MVC   WLINEH,=Y(W1LEN+4,0)     SET MSG HEADER
* TCBPDE   BAL   R2,PDESCAN               GET NEXT PDE
*          B     RETURN                   THAT'S ALL
*          MVC   W1NAME,WNAME             SAVE TASK NAME
*          BAL   R2,TCBSCAN               GET TCB ADDRESS
*          B     TCBMISS                  INVALID NAME
*          LR    R8,R15                   SAVE TCB ADDRESS
*          B     TCBAFND                  PROCESS IT
* TCBMISS  MVC   W1ADDR,XBLANKS           BLANK OUT ADDRESS
*          MVI   W1ADDR+2,C'?'
*          B     TCBALIST                 GO LIST IT
*          USING TCB,R8
* TCBAFND  ZCHK  R15,TCBLTC,TCBAFNDA      GET SUBTASK
*          LR    R8,R15                   RESET TCB ADDRESS
*          B     TCBAFND                  CONTINUE
* TCBAFNDA L     R8,TCBJSTCB              NO, GET JOB STEP TCB
*          ACON  (R8),W1ADDR              CONVERT TCB ADDRESS
* TCBALIST BAL   R2,MSGSTD                WRITE IT OUT
* TCBANEXT B     TCBPDE                   GET NEXT TASK
*          SPACE 2
*          DROP  R8
         EJECT
************************************************************
*                                                          *
*        'QCBS(TASKNAME)' SPECIFIED                        *
*                                                          *
************************************************************
         SPACE
QCBCHK   CLI   PTYPE+1,2                QCB REQUEST?
         BNE   LPACHECK                 NO, TRY LINKPACK SEARCH
         MVC   WLINEH,=Y(W2LEN+4,0)     YES, SET MSG HEADER
         MVC   WLINED,WLINEB            CLEAR PRINT LINE
         LINE2
         L     R15,CVTPTR               CVT
         USING CVT,R15
         L     R0,CVTFQCB               GET QCB ORIGIN
         ST    R0,WQCBORG               SAVE IT
         DROP  R15
         LA    R9,PDTCBA                SET FIRST PDE
QCBNMCHK BAL   R2,PDESCAN               GET NEXT PDE
         B     RETURN                   THAT'S ALL
         MVC   WLINE2+6(8),WNAME        SET NAME IN HEADER
         LA    R0,WLINE2
         BAL   R2,MSGDATA               WRITE OUT HEADER
         L     R8,WQCBORG               FIRST QCB
QCBMAJOR LTR   R8,R8                    ANYMORE MAJORS?
         BNP   QCBNEXT                  NO, GET NEXT SEARCH NAME
         MVC   W2QNAME,16(R8)  (MVS)    YES, SET MAJOR NAME
         CLC   16(8,R8),=CL8'SYSDSN'    IS IT DSNAME QUEUE?
         BE    QCBMAJOK                 YES - BRANCH
         CLC   16(8,R8),=CL8'SYSZOPEN'  IS IT OPEN QUEUE?
         BE    QCBMAJOK                 YES - BRANCH
         CLC   16(8,R8),=CL8'SYSIKJUA'  IS IT TSO USERID QUEUE?
         BE    QCBMAJOK                 YES - BRANCH
         B     QCBMAJLP                 NO - GET NEXT MAJOR
QCBMAJOK EQU   *
         L     R7,8(R8)                 FIRST MINOR QCB
QCBMINOR LTR   R7,R7                    ANYTHING?
         BNP   QCBMAJLP                 NO, GET ANOTHER MAJOR QCB
         L     R6,8(R7)        (MVS)    YES, GET FIRST QEL
QCBQEL   LTR   R6,R6                    ANYMORE QEL'S?
         BNP   QCBMINLP                 NO, GET NEXT MINOR QCB
         TM    12(R6),X'80'    (MVS)    YES, SHR?
         BO    QCBTJCHK                 YES, ....
         OI    WSW,WSWAIT               NO, INDICATE ALL OTHERS WAITING
QCBTJCHK EQU   *
*
*        POINT R5 TO JOBNAME, USING ASID AT 14(R6)
*
         L     R1,CVTPTR
         L     R1,X'22C'(,R1)           ASVT
         LA    R1,X'210'(,R1)           FIRST ASVTENTY
         LH    R15,14(,R6)              QELASID
         BCTR  R15,0
         SLL   R15,2                    TIMES FOUR
         L     R1,0(R15,R1)             R1 POINTS TO ASCB
         L     R5,176(,R1)              ASCBJBNS
         LTR   R5,R5
         BNZ   *+8
         LA    R5,=CL8'STARTING'
         CLC   0(5,R5),=C'INIT '        INITIATED JOB?
         BNE   *+8                      NO - BRANCH
         L     R5,172(,R1)              ASCBJBNI
         LTR   R5,R5
         BNZ   *+8
         LA    R5,=CL8'STARTING'
         SPACE
QCBQELCK CLC   WNAME,0(R5)              DESIRED QEL?
         BE    QCBQELFD                 YES, LIST IT
         L     R6,0(R6)                 NO, GET NEXT QEL
         LA    R6,0(R6)                 CLEAR HI-ORDER BYTE
         B     QCBQEL                   KEEP LOOKING
QCBQELFD MVC   W2TYPE,=CL4'SHR'         ASSUME SHR
         TM    12(R6),X'80'    (MVS)    SHR?
         BO    QCBQELST                 YES, ...
         MVC   W2TYPE,=CL4'EXCL'        NO, SET EXCLUSIVE
         CL    R6,0(R7)                 IS THIS THE 1ST QEL?
         BE    QCBQELMC                 YES, CONTINUE
         B     QCBQELWT                 NO, ....
QCBQELST MVC   W2STAT,XBLANKS           BLANK WAITING FIELD
         TM    WSW,WSWAIT               WAITING?
         BZ    QCBQELMC                 NO, ....
QCBQELWT MVC   W2STAT,=C'WAIT'          INDICATE WAITING
         MVC   W2STAT,XBLANKS           NEGATE PREVIOUS INSTR
QCBQELMC MVC   W2SMC,XBLANKS            CLEAR STATUS FIELD
*        TM    0(R6),X'30'              MUST COMPLETE?
*        BZ    QCBQELRN                 NO, WRITE OUT LINE
*        MVC   W2SMC,=CL4'STEP'         YES, ASSUME STEP
*        TM    0(R6),X'10'              STEP?
*        BO    QCBQELRN                 YES, ...
*        MVC   W2SMC,=CL4'SYS'          NO, SYSTEM(SHOULD NEVER SEE IT)
QCBQELRN MVC   W2RNAME,XBLANKS          CLEAR OUT RNAME
         SLR   R15,R15                  CLEAR WORK REGISTER
         IC    R15,16(R7)               RNAME LENGTH
         LA    R0,L'W2RNAME             MAX ALLOWED
         CR    R15,R0                   ACCEPTABLE?
         BNH   *+6                      YES,
         LR    R15,R0                   NO, SET TO MAX
         BCTR  R15,0                    LENGTH - 1
         EX    R15,IMRNAME              MOVE RNAME TO PRINT LINE
         BAL   R2,MSGSTD                WRITE IT ALL OUT
         MVC   W2QNAME,XBLANKS          CLEAR MAJOR NAME
QCBMINLP NI    WSW,X'FF'-WSWAIT         TURN OFF WAIT BIT
         L     R7,0(R7)       (MVS)     NEXT MINOR QCB
         LA    R7,0(R7)
         B     QCBMINOR
QCBMAJLP L     R8,0(R8)                 NEXT MAJOR QCB
         LA    R8,0(R8)
         B     QCBMAJOR
QCBNEXT  B     QCBNMCHK                 GO GET NEXT PDE
         EJECT
************************************************************
*                                                          *
*        'LPA(MODULE)' SPECIFIED                           *
*                                                          *
************************************************************
         SPACE
LPACHECK CLI   PTYPE+1,3                LINKPACK SEARCH?
         BNE   UNITCHK                  NO, ....
         MVC   WLINEH,=Y(W3LEN+4,0)     YES, SET MSG HEADER
         MVC   WLINED,WLINEB            CLEAR MESSAGE LINE
         LA    R9,PDLPA                 FIRST PDE
LPALOOP  BAL   R2,PDESCAN               GO GET PDE
         B     RETURN                   THAT'S ALL
         MVC   W3NAME,WNAME             MOVE NAME TO PRINT LINE
         USING CDE,R15
*
*              CALL IEAVVMSR TO SEARCH LPA DIRECTORY
*
*                  REGS 0 AND 1 - CONTAIN NAME
*                  REG 3        - CVT
*                  REGS 7 8 9   - WORK REGS
*                  REG 14       - RETURN - BAD RETURN 4(14)
*                  REG 0        - POINTS TO LPDE AFTER GOOD RETURN
*
         LM    R0,R1,WNAME
         STM   R7,R9,WLPA
         L     R3,CVTPTR
         USING CVT,R3
         L     R15,CVTLPDSR
         DROP  R3
         BALR  R14,R15
         B     LPAFOUND
         B     LPANOTFO
LPAFOUND LM    R7,R9,WLPA
         LR    R15,R0
         B     LPALIST
LPANOTFO LM    R7,R9,WLPA
         MVI   W3CDE+3,C'?'             INDICATE NOT FOUND
         B     LPALISTA                 GO LIST IT
LPALIST  MVC   W3CDEL,=C'LPDE'
         ACON  (R15),W3CDE              CONVERT CDE ADDRESS
         MVC   W3EPL,=C'EP'
         ACON  CDENTPT(5),W3EP          CONVERT ENTRY POINT
         DROP  R15
LPALISTA BAL   R2,MSGSTD                LIST IT OUT
         MVC   WLINED,WLINEB            CLEAR OUTPUT LINE
         B     LPALOOP                  GO GET NEXT PDE
         EJECT
************************************************************
*                                                          *
*        'UNITS(CUU)' SPECIFIED                            *
*                                                          *
************************************************************
         SPACE
UNITCHK  CLI   PTYPE+1,4                UNITS SPECIFIED?
         BNE   VOLCHECK                 NO, CONTINUE
         MVC   WLINEH,=Y(W5LEN+4,0)     YES, SET MSG HEADER
         TM    PDUNIT+6,X'80'           SPECIFIC UNITS REQUESTED?
         BNO   VOLSETA                  NO, LIST ALL DASD UNITS
         L     R15,CVTPTR               YES, GET THE CVT
         USING CVT,R15
         L     R8,CVTILK2               UCB LOOK-UP TABLE
         DROP  R15                      CVT
         ST    R8,WUCBTBL               SAVE LOOK-UP TABLE ADDRESS
         OI    WSW,WSWRTJ               RIGHT JUSTIFY
         MVC   WFILLER,XC0              SET FILLER
         LA    R9,PDUNIT                SET FIRST PDE
UNITSCAN BAL   R2,PDESCAN               PROCESS PDE
         B     RETURN                   THAT'S ALL
         MVC   WLINED,WLINEB            CLEAR THE PRINT LINE
         MVC   W5UNIT,WNAME+5           SAVE UNIT NAME
         L     R8,WUCBTBL               UCB TABLE START
UNITSCNA LH    R7,0(R8)                 UCB ADDRESS
         LTR   R7,R7                    ANYTHING?
         BZ    UNITSCNB                 NO, EMPTY SLOT
         BM    UNITERR                  NO, THE END....
         USING UCB,R7
         CLC   W5UNIT,UCBNAME           CORRECT UNIT?
         BE    UNITFND                  YES, SET IT UP
UNITSCNB LA    R8,2(R8)                 NO, BUMP TABLE PTR
         B     UNITSCNA                 KEEP LOOKING
UNITFND  CLI   UCBTBYT3,UCB3TAPE        TAPE?
         BE    UNITVOL                  YES, SET SERIAL
         CLI   UCBTBYT3,UCB3DACC        NO, DIRECT ACCESS?
         BNE   UNITDATA                 NO, LIST IT OUT
UNITVOL  MVC   W5VOLSER,UCBVOLI         YES, SET VOLUME SERIAL
         OC    W5VOLSER,W5VOLSER        BINARY ZEROES?
         BNZ   *+10                     NO
         MVC   W5VOLSER,=CL6' '         YES - MAKE IT BLANKS
UNITDATA BAL   R2,UCBDATA               WRITE OUT NECESSARY DATA
         B     UNITLOOP                 KEEP ON....
UNITERR  MVI   W5UCB+2,C'?'             ERROR
         BAL   R2,MSGSTD                WRITE IT OUT
UNITLOOP B     UNITSCAN                 GET NEXT PDE
         DROP  R7                       UCB
         EJECT
************************************************************
*                                                          *
*        'VOLUMES(VOLSER)' SPECIFIED                       *
*                                                          *
************************************************************
         SPACE
VOLCHECK CLI   PTYPE+1,5                VOLUMES REQUESTED?
         BNE   BLDLCHK                  NO, ....
VOLSETA  MVC   WLINEH,=Y(W5LEN+4,0)     YES, SET MESSAGE HEADER
         L     R15,CVTPTR               CVT
         USING CVT,R15
         L     R8,CVTILK2               UCB ADDRESSES
         DROP  R15                      CVT
         BAL   R2,GETUCB                GET INITIAL UCB ADDRESS
         B     ERRUCB                   NOTHING??????
         S     R8,=F'2'                 BACKUP OFF TO FIRST DASD UCB
         ST    R8,WDASTART              SAVE IT
         TM    PDVOL+6,X'80'            VOLUMES SPECIFIED?
         BNO   UNITSET                  NO, LIST THEM ALL
         LA    R9,PDVOL                 YES, SET FIRST PDE
VOLCHKB  BAL   R2,PDESCAN               GO GET PDE
         B     RETURN                   THAT'S ALL
         MVC   W5VOLSER,WNAME           SET VOLUME SERIAL
         L     R8,WDASTART              START OF DASD UCBS
         BAL   R2,GETVOL                LOCATE PROPER UCB
         B     VOLERR                   NOTHING, INVALID SERIAL
         LR    R7,R15                   GET UCB ADDRESS
         USING UCB,R7
         MVC   W5UNIT,UCBNAME           SET UNIT ADDRESS
         BAL   R2,UCBDATA               CHECK FOR DATA REQUEST
         B     VOLCHKB                  GET NEXT PDE
         DROP  R7                       UCB
VOLERR   MVC   W5UNIT(9),XBLANKS        BLANK OUT MESSAGE
         MVI   W5UNIT+1,C'?'
         BAL   R2,MSGSTD                WRITE IT OUT
         B     VOLCHKB                  KEEP LOOKING
UNITSET  L     R8,WDASTART              INITIAL DASD UCB
UNITSETA BAL   R2,GETUCB                GET NEXT UCB
         B     RETURN                   THAT'S ALL
         MVC   WLINED,WLINEB            CLEAR OUTPUT LINE
         LR    R7,R15                   GET UCB ADDRESS
         USING UCB,R7
         MVC   W5VOLSER,UCBVOLI         VOLUME SERIAL
         MVC   W5UNIT,UCBNAME           UNIT NAME
         BAL   R2,UCBDATA               CHECK FOR DATA REQUEST
         B     UNITSETA                 KEEP LOOKING
         DROP  R7                       UCB
         EJECT
************************************************************
*                                                          *
*        'BLDL(MODULE)' SPECIFIED                          *
*                                                          *
************************************************************
         SPACE
BLDLCHK  CLI   PTYPE+1,6                SCAN RESIDENT BLDL LISTS?
         BNE   STORAGE                  NO, ....
         L     R15,CVTPTR               CVT
         USING CVT,R15
         L     R15,CVTPRLTV             TTR0 CONVERSION ROUTINE
         DROP  R15                      CVT
*
*        FOLLOWING ASSUMPTION IS HIGHLY DEPENDENT ON THE ASSEMBLY
*        OF BLDL(SVC 18).
*
         S     R15,=A(X'58')            BACK OFF TO ADDRESSES
*              R15   POINTS TO IEARESBL
*                    WHICH IS ALSO IEARESBS-4
         L     R0,0(R15)                RESIDENT LINKLIB LIST
         ST    R0,WBLDLINK
         L     R0,4(R15)                RESIDENT SVCLIB LIST
         ST    R0,WBLDSVC
         MVC   WLINEH,=Y(W6LEN+4,0)     SET MESSAGE HEADER
         LA    R9,PDLPA                 SET FIRST PDE
BLDLOOP  BAL   R2,PDESCAN               GO GET PDE
         B     RETURN                   THAT'S ALL
         MVC   W6NAME,WNAME             MOVE NAME TO PRINT LINE
         L     R15,WBLDLINK             SEARCH LINKLIB FIRST
         LTR   R15,R15                  ANY?
         BZ    BLDLS                    NO - BRANCH
         BAL   R2,BLDLSCAN              LOOK FOR IT
         B     BLDLIST                  GOT IT
BLDLS    L     R15,WBLDSVC              NOTHING, NOW TRY SVCLIB
         LTR   R15,R15                  ANY?
         BZ    BLDLQ                    NO - BRANCH
         BAL   R2,BLDLSCAN              GO LOOK FOR IT
         B     BLDLIST                  GOT IT THIS TIME
BLDLQ    MVI   W6ADDR+3,C'?'            SORRY, NOTHING....
         B     BLDLISTA
BLDLIST  ACON  (R3),W6ADDR              SET ENTRY POINT IN PRINT LINE
BLDLISTA BAL   R2,MSGSTD                LIST IT OUT
         MVC   WLINED,WLINEB            CLEAR OUTPUT LINE
BLDLNEXT B     BLDLOOP                  GO GET NEXT PDE
         EJECT
************************************************************
*                                                          *
*        'STORAGE(NAME)' SPECIFIED                         *
*                                                          *
************************************************************
         SPACE
STORAGE  CLI   PTYPE+1,7                STORAGE REQUEST SPECIFIED?
         BNE   SUBPOOLS                 NO, ....
         B     RETURN
*          MVC   WLINEH,=Y(W7LEN+4,0)     YES, SETUP PRINT LINE
*          TM    PDNAME+6,X'80'           WERE NAMES SPECIFIED?
*          BO    STORTASK                 YES, GO PROCESS THEM
*          L     R15,CVTPTR               NO, GET THE CVT ADDRESS
*          USING CVT,R15
*          L     R15,CVTABEND             SECONDARY CVT
* *        USING SCVT,R15
* *        L     R15,SCVTMSSQ             GOVRFLB
*          DROP  R15
*          L     R7,8(R15)                DUMMY PQE
*          LA    R2,RETURN                SET EXIT ADDRESS FOR RETURN
*          B     STORAGE2                 GO TO IT
*          SPACE 2
* STORTASK LINE2
*          LA    R9,PDNAME                INITIAL PDE
* STORNEXT BAL   R2,PDESCAN               CHECK IT OUT
*          B     RETURN                   THAT'S ALL
*          MVC   WLINE2+6(8),WNAME        TASK NAME IN HEADER
*          LA    R0,WLINE2                MSG LINE
*          BAL   R2,MSGDATA               LIST IT OUT
*          BAL   R2,TCBSCAN               LOCATE DESIRED TCB
*          B     STORNEXT                 NOTHING....
*          USING TCB,R15                  GOT IT
*          L     R7,TCBPQE                DUMMY PQE
*          DROP  R15
*          BAL   R2,STORAGE2              DO IT TO IT
*          B     STORNEXT                 GO GET THE NEXT NAME
*          SPACE 2
* STORAGE2 DS    0H
*          ST    R2,WSAVE1                SAVE LINKAGE REGISTER
*          SLR   R0,R0                    ZERO WORK REG & CLEAR STORAGE
*          ST    R0,WSTORCNT              ....
*          ST    R0,WSTORSUM              ....
*          ST    R0,WSTORMAX              ....
*          L     R7,8(R7)                 PQE
*          LA    R7,0(R7)                 CLEAR HI-ORDER BYTE
*          C     R7,0(R7)                 ANY FBQE'S?
*          BE    STORNONE                 NO, NOTHING....
*          L     R8,0(R7)                 YES, GET FIRST FBQE
* STORFBQE ACON  (R8),W7ADDR              LOCATION
*          L     R1,8(R8)                 SIZE
*          LA    R1,0(R1)
*          SRL   R1,10                    DIVIDE BY 1024
*          CVD   R1,WDOUBLE               TO DECIMAL
*          MVC   W7KB,XPAT1               PATTERN
*          ED    W7KB,WDOUBLE+5           MAKE IT PRINTABLE
*          MVI   W7K,C'K'                 PLACE "K" IN MESSAGE
*          C     R1,WSTORMAX              LARGEST SO FAR?
*          BNH   STORSUM                  NO, ...
*          ST    R1,WSTORMAX              YES, SET NEW MAXIMUM
* STORSUM  AL    R1,WSTORSUM              UPDATE TOTAL
*          ST    R1,WSTORSUM
*          L     R1,WSTORCNT              UPDATE FBQE COUNT
*          LA    R1,1(R1)
*          ST    R1,WSTORCNT
*          BAL   R2,MSGSTD                LIST IT
*          L     R8,0(R8)                 GET NEXT POSSIBLE FBQE
*          LA    R8,0(R8)
*          CLR   R8,R7                    IS IT THE PQE?
*          BNE   STORFBQE                 NO, PROCESS IT
* *                                       YES, CONSTRUCT TOTAL LINE
*          MVC   WLINED,WLINEB            CLEAR OUT PRINT LINE
*          MVC   W7SX,=C'SUM='            SUMMATION OF ALL AREAS
*          EDST  WSTORSUM,W7S
*          MVI   W7SK,C'K'
*          MVC   W7MX,=C'MAX='            LARGEST AREA
*          EDST  WSTORMAX,W7M
*          MVI   W7MK,C'K'
*          MVC   W7FX,=C'#FBQES='         NUMBER OF FBQE'S
*          EDST  WSTORCNT,W7F
*          BAL   R2,MSGSTD                WRITE IT OUT
*          MVC   WLINED,WLINEB            CLEAR OUT PRINT LINE
* *
*          B     STOR2END                 TERMINATE
* STORNONE LA    R0,MNOFREE               INDICATE NO FREE AREA
*          BAL   R2,MSGDATA
* STOR2END L     R2,WSAVE1                RESTORE LINKAGE REGISTER
*          BR    R2                       RETURN
         EJECT
************************************************************
*                                                          *
*        'SUBPOOLS(TASKNAME)' SPECIFIED                    *
*                                                          *
************************************************************
         SPACE
SUBPOOLS CLI   PTYPE+1,8                SUBPOOLS REQUESTED?
         BNE   SVCTABLE                 NO, ....
         B     RETURN
*          MVC   WLINEH,=Y(W8LEN+4,0)     YES, SET MSG HEADER
*          CLI   PDATA+1,1                DATA?
*          BE    SUBLIST                  YES, GIVE PARTICULARS
*          LA    R0,XSPTOT                NO, GIVE TOTALS HEADER
*          BAL   R2,MSGDATA               TITLE LINE
*          LA    R9,PDTCBA                INITIAL PDE
* SUBTPDE  BAL   R2,PDESCAN               CHECK IT OUT
*          B     RETURN                   THAT'S ALL
*          MVC   W8XTASK,WNAME            NAME TO LINE
*          BAL   R2,TCBSCAN               LOCATE DESIRED TCB
*          B     SUBTPDE                  NOTHING, TRY ANOTHER
*          USING TCB,R15
*          ZCHK  R1,TCBMSS,SUBTPDE        SPQE CHAIN PTR
*          ST    R1,WSPQE
*          DROP  R15
* SUBTSPQE XC    WDQECNT(24),WDQECNT      CLEAR COUNTERS
*          BAL   R2,SPQECHK               GET NEXT SPQE
*          B     SUBTPDE                  THAT'S ALL
*          SLR   R0,R0                    CLEAR WORK REGISTER
*          IC    R0,4(R8)                 SUBPOOL ID
*          CVD   R0,WDOUBLE               TO DECIMAL
*          OI    WDOUBLE+7,X'0F'          MAKE IT PRINTABLE
*          UNPK  W8XSPID,WDOUBLE          ....
*          LR    R7,R8                    DQE PTR - 4
* SUBTDQE  ZCHK  R7,4(R7),SUBTLIST        DQE
*          L     R1,12(R7)                SIZE
*          LA    R1,0(R1)
*          CL    R1,WDQEMAX               IS THIS ONE LARGER?
*          BNH   *+8                      NO, ...
*          ST    R1,WDQEMAX               YES, SET NEW MAX
*          AL    R1,WDQESUM               UPDATE TOTAL SIZE
*          ST    R1,WDQESUM
*          L     R1,WDQECNT               COUNT DQE'S
*          LA    R1,1(R1)
*          ST    R1,WDQECNT
*          LR    R6,R7                    SET FOR FQE'S
* SUBTFQE  ZCHK  R6,0(R6),SUBTDQE         FQE
*          L     R1,4(R6)                 SIZE
*          LA    R1,0(R1)
*          CL    R1,WFQEMAX               IS THIS ONE LARGER?
*          BNH   *+8                      NO, ...
*          ST    R1,WFQEMAX               YES, SET NEW MAX
*          AL    R1,WFQESUM               UPDATE TOTAL SIZE