./ ADD NAME=$#SVCKP  0100-13007-13007-1401-00021-00021-00000-FILE300
         MACRO
&NAME    $#SVCKP
         PRINT OFF
.*------------------------------------------------------------------*
.*                                                                  *
.*       THIS MACRO REPRESENTS A SNEAKY WAY TO GET OUT OF           *
.*       SUPERVISOR STATE AND KEY=0. YOU SOMETIMES NEED THIS        *
.*       CAPABILITY IN SYSTEM PROGRAMMER TYPE FUNCTIONS. ONE        *
.*       MUST BE VERY CAREFUL TO ENSURE A USER DOES NOT LEARN       *
.*       OF THIS CAPABILITY (VIOLATES SECURITY). I CODED THIS       *
.*       MACRO SO WHEN WE HAVE SOURCE CODE, WE CAN CODE THIS        *
.*       MACRO AND NOT IMBED THE SENSITIVE CODE IN ALOT OF          *
.*       DIFFERENT PLACES.                                          *
.*                                                                  *
.*                                                                  *
.*------------------------------------------------------------------*
&NAME    L     R0,=C'ZZLQ'         SETUP R0
         L     R1,=F'0'            SETUP R1
         SVC   255                 GO DO IT
         PRINT ON
         MEND
./ ADD NAME=$#SVCKS  0100-13007-13007-1401-00022-00022-00000-FILE300
         MACRO
&NAME    $#SVCKS
         PRINT OFF
.*------------------------------------------------------------------*
.*                                                                  *
.*       THIS MACRO REPRESENTS A SNEAKY WAY TO GET YOURSELF INTO    *
.*       SUPERVISOR STATE AND KEY=0. YOU SOMETIMES NEED THIS        *
.*       CAPABILITY IN SYSTEM PROGRAMMER TYPE FUNCTIONS. ONE        *
.*       MUST BE VERY CAREFUL TO ENSURE A USER DOES NOT LEARN       *
.*       OF THIS CAPABILITY (VIOLATES SECURITY). I CODED THIS       *
.*       MACRO SO WHEN WE HAVE SOURCE CODE, WE CAN CODE THIS        *
.*       MACRO AND NOT IMBED THE SENSITIVE CODE IN ALOT OF          *
.*       DIFFERENT PLACES.                                          *
.*                                                                  *
.*       JIM MARSHALL, CAPT, USAF                                   *
.*                                                                  *
.*------------------------------------------------------------------*
&NAME    L     R0,=C'ZZLQ'         SETUP R0
         L     R1,=F'1'            SETUP R1
         SVC   255                 GO DO IT
         PRINT ON
         MEND
./ ADD NAME=$EPILOG  0100-13007-13007-1401-00013-00013-00000-FILE300
         MACRO
&LABEL   $EPILOG &RC
&LABEL   LR    R1,R13              GET SAVEAREA ADDRESS
         L     R13,4(R13)          GET BACK CHAIN POINTER
         L     R0,16(R13)          GET SAVEAREA LENGTH
         ST    R15,16(R13)         SAVE REGISTER 15 (RETCODE)
         FREEMAIN R,LV=(0),A=(1)   FREE SAVEAREA
         LM    R14,R12,12(R13)     RESTORE CALLERS REGS
         AIF   (T'&RC EQ 'O').SPEC
         LA    R15,&RC             SET RETURN CODE
.SPEC    ANOP
         BR    R14                 RETURN TO CALLER
         MEND
./ ADD NAME=$PROLOG  0100-13007-13007-1401-00092-00092-00000-FILE300
         MACRO
&LABEL   $PROLOG &LV=0
.**********************************************************************
.*
.*       THIS MACRO WILL PROVIDE ENTRY LINKAGE AND OPTIONALLY
.*       MULTIPLE BASE REGISTERS.  ALSO, VIA THE 'LV=' KEYWORD
.*       PROVIDE ADDITIONAL USER STORAGE (APPENDED TO THE
.*       SAVE AREA) ADDRESSABLE FROM REG 13.  IF NO OPERANDS
.*       ARE CODED, REG 12 IS ASSUMED THE BASE. EXAMPLE:
.*              SECTNAME $PROLOG          = STANDARD REG 12 BASE
.*              SECTNAME $PROLOG 5        = STANDARD, REG 5 BASE
.*              SECTNAME $PROLOG 10,LV=20 = ADD 20 BYTES TO SAVE AREA
.*                                             REG 10 IS BASE
.*              SECTNAME $PROLOG R10,R11  = REGS 10 AND 11 ARE BASES
.*
.**********************************************************************
         LCLA  &AA,&AB,&AC
         GBLB  &PRORG
&AC      SETA  4096
&LABEL   CSECT
         B     32(R15)             BRANCH AROUND
         DC    AL1(26)
         DC    CL8'&LABEL'         CSECT NAME
         DC    C'-'
         DC    CL8'&SYSDATE'       COMPILE DATE
         DC    C'-'
         DC    CL8'&SYSTIME'       COMPILE TIME
         CNOP  0,4                 ALIGNMENT
         STM   R14,R12,12(R13)     SAVE REGISTERS
         LR    R12,R15             LOAD BASE REG
         USING &LABEL,R12          INFORM ASSEMBLER
         AIF   (&LV GT 4023).MERR
         LA    R0,&LV+72           LOAD REG 0 WITH LENGTH VARIABLE
         GETMAIN R,LV=(0)          GET CORE FOR SAVEAREA AND USER
         AIF   (&LV+72 LE 256).XC2
         AIF   (&LV+72 LE 512).XC1
         MVI   0(R1),X'00'         MOVE X'00' TO FIRST BYTE
         LR    R2,R1               SAVE POINTER IN EVEN REG
         LA    R4,1(R1)            SET RECEIVING POINTER
         LR    R5,R0               SET RECEIVING LENGTH
         BCTR  R5,R0               DECREMENT LENGTH
         LA    R5,0(R5)            CLEAR HIGH ORDER BYTE
         LA    R3,1                SET SENDING LENGTH
         MVCL  R4,R2               INSTRUCTION PADS WITH X'00'
         AGO   .STORE
.XC1     ANOP
         XC    256(&LV-184,R1),256(R1)  CLEAR SAVE AREA
         XC    0(256,R1),0(R1)          CLEAR SAVE AREA
         AGO   .STORE
.XC2     ANOP
         XC    0(&LV+72,R1),0(R1)       CLEAR SAVE AREA
.STORE   ANOP
         ST    R13,4(R1)           SAVE BACK CHAIN
         ST    R1,8(R13)           SET FORWARD CHAIN
         LR    R11,R1              SAVE NEW SAVEAREA ADDRESS
         L     R15,16(R13)         RESTORE REG 15
         ST    R0,16(R13)          SAVE SAVEAREA LENGTH
         LM    R0,R1,20(R13)       RESTORE REGS USED IN GETMAIN
         LR    R13,R11             SET SAVEAREA POINTER
         AIF   (N'&SYSLIST EQ 0).MEND
         AIF   ('&SYSLIST(1)' EQ 'R12').SKIPIT
         AIF   ('&SYSLIST(1)' EQ '12').SKIPIT
         LA    &SYSLIST(1),&LABEL  LOAD REQUESTED BASE REG
         DROP  R12                 DROP ASSUMED BASE REG
         USING &LABEL,&SYSLIST(1)  INFORM ASSEMBLER
.SKIPIT  ANOP
&AA      SETA  2
.LOOP    ANOP
         AIF   (&AA GT N'&SYSLIST).MEXIT
&AB      SETA  &AA-1
         LA    &SYSLIST(&AA),2048(&SYSLIST(&AB))  LOAD NEXT BASE REG
         LA    &SYSLIST(&AA),2048(&SYSLIST(&AA))  LOAD NEXT BASE REG
         USING &LABEL+&AC,&SYSLIST(&AA) INFORM ASSEMBLER
&AC      SETA  &AC+4096
&AA      SETA  &AA+1
         AGO   .LOOP
.MEXIT   ANOP
         AIF   (&PRORG).MEX2
         SPACE
         $REGS
         SPACE
.MEX2    ANOP
&AA      SETA  &LV+72
         MNOTE *,'TOTAL STORAGE AREA RECEIVED = &AA'
         MEXIT
.MEND    ANOP
         MNOTE *,'NO REGISTER SPECIFIED - R12 ASSUMED'
         AGO   .MEXIT
.MERR    ANOP
         MNOTE 12,'LV > 4023 - REQUEST IGNORED'
         AGO   .MEXIT
         MEND
./ ADD NAME=###DOC   0100-13007-13007-1401-00012-00012-00000-FILE300
         MACRO
         ###DOC
.*------------------------------------------------------------------*
.*       THIS MEMBER IS NOT REALLY A MACRO BUT A DOCUMENTATION      *
.*       MEMBER FOR THE MACRO MEMBER. THE REASON WHY I HAVE         *
.*       CHANGED THE './ ADD' CARDS TO '>< ADD' IS SO I CAN         *
.*       GENERATE MICROFICHE.  YOU NEED TO DO A MASS CHANGE OF      *
.*       '><' TO './'                                               *
.*                                                                  *
.*       JIM MARSHALL, CAPT, USAF (RET)                             *
.*------------------------------------------------------------------*
         MEND
./ ADD NAME=CONVERT  0100-13007-13007-1401-00050-00050-00000-FILE300
         MACRO
&NAME    CONVERT &EVENREG,&DIGITS,&DBLWD,&TYPE=DEC
.*
.*  THIS MACRO WILL PERFORM HEX TO HEX CHARACTER OR DECIMAL
.*  CHARACTER CONVERSIONS.  IT USES AN EVEN-ODD PAIR OF REGS
.*  AND A DOUBLE WORD OF STORAGE TO DO ITS CALCULATIONS.
.*
         GBLC  &CONV
         GBLC  &P
         LCLA  &N
         LCLA  &ODDREG
         LCLA  &LCLDIGS
&N       SETA  0
&ODDREG  SETA  &EVENREG+1
&LCLDIGS SETA  &DIGITS
         AIF   (T'&EVENREG NE 'N').ERR1
         AIF   (T'&DIGITS NE 'N').ERR2
         AIF   ('&NAME' EQ '').NONAME
&NAME    EQU   *
.NONAME  ANOP
         AIF   ('&TYPE' NE 'DEC').NODEC
         AIF   (&DIGITS GT 5).ERR4
         CVD   &EVENREG,&DBLWD
         UNPK  &DBLWD.(&DIGITS.),&DBLWD+5(3)
         OI    &DBLWD+&DIGITS-1,X'F0'
         MEXIT
.NODEC   ANOP
         AIF   (&DIGITS GT 4).ERR3
&CONV    SETC  'YES'   SO CPDATA KNOWS A HEX CONVERT WAS ISSUED
         AIF   (&LCLDIGS EQ 0).DONE
         SRDL  &EVENREG,4
         SRL   &ODDREG,4
&LCLDIGS SETA  &LCLDIGS-1
         AGOB  .NODEC
.DONE    ANOP
         ST    &ODDREG,&DBLWD
         TR    &DBLWD.(&DIGITS.),&P.CHARS
         MEXIT
.ERR1    ANOP
         MNOTE 8,'FIRST OPERAND NOT NUMERIC'
         MEXIT
.ERR2    ANOP
         MNOTE 8,'SECOND OPERAND NOT NUMERIC'
         MEXIT
.ERR3    ANOP
         MNOTE 8,'SECOND OPERAND > 4 ON HEX CONVERT'
         MEXIT
.ERR4    ANOP
         MNOTE 8,'SECOND OPERAND > 5 ON DEC CONVERT'
         MEND
./ ADD NAME=CPDATA   0100-13007-13007-1401-00097-00097-00000-FILE300
         MACRO
         CPDATA &LIST=YES
         GBLC  &GIOPL
         GBLC  &DAIRFL
         GBLC  &GPCL
         GBLC  &GDYN
         GBLC  &P
         GBLC  &GNRLF
         GBLC  &CONV
         PUSH  PRINT
         PRINT GEN
         AIF   ('&CONV' EQ '').NOCONV
&P.CHARS DC    C'0123456789ABCDEF'
.NOCONV  ANOP
         AIF   ('&GPCL' EQ 'NONE').NOPCLDC
&P.PCLAD DC    A(&GPCL)
.NOPCLDC ANOP
&P.DATA  DSECT ,              DYNAMIC STORAGE AREA
&P.SAVE  DS    18F            SAVE AREA
&P.ECB   DS    F              COMMAND PROCESSOR ECB
         AIF   ('&LIST' EQ 'YES').LST1
         PRINT NOGEN
.LST1    ANOP
         IKJCPPL
&P.DATA  DSECT ,              RESUME ORIGINAL DSECT
         AIF   ('&GIOPL' EQ 'NO').NOIOPL
         IKJIOPL
&P.DATA  DSECT ,              RESUME ORIGINAL DSECT
         PRINT GEN
&P.IOPL  DS    4A             INPUT/OUTPUT PARAM LIST
.NOIOPL  ANOP
         AIF   ('&GPCL' EQ 'NONE').NOPCL
         AIF   ('&LIST' EQ 'NO').NLST2
         PRINT GEN
         AGO   .LST2
.NLST2  ANOP
         PRINT NOGEN
.LST2    ANOP
         IKJPPL
&P.DATA  DSECT ,              RESUME ORIGINAL DSECT
         PRINT GEN
&P.PPL   DS    7A             PARSE PARAM LIST
&P.ANS   DS    F              POINTER TO PDL (ANSWER PLACE)
.NOPCL   ANOP
         AIF   ('&GDYN' EQ 'NO').NODYN
         AIF   ('&LIST' EQ 'NO').NLST3
         PRINT GEN
         AGO   .LST3
.NLST3  ANOP
         PRINT NOGEN
.LST3    ANOP
         IEFZB4D0
         IEFZB4D2
&P.DATA  DSECT ,              RESUME ORIGINAL DSECT
         PRINT GEN
&P.RBPTR DS    F              DYN ALLOC RB POINTER
&P.RB    DS    5F             DYN ALLOC REQUEST BLOCK
.NODYN   ANOP
         AIF   ('&GNRLF' EQ '').NOGNRLF
         AIF   ('&LIST' EQ 'NO').NLST4
         PRINT GEN
         AGO   .LST4
.NLST4   ANOP
         PRINT NOGEN
.LST4    ANOP
         IKJEFFGF GFDSECT=YES
&P.DATA  DSECT ,              RESUME ORIGINAL DSECT
         PRINT GEN
&P.GNRLF DS    F              PTR TO GNRLFAIL CONTROL BLOCK
         DS    3F             GNRLFAIL CONTROL BLOCK
         DS    H
         DS    2X
         DS    2F
         DS    2H
         DS    4F
.NOGNRLF ANOP
         AIF   ('&DAIRFL' EQ '').NODF
         AIF   ('&LIST' EQ 'NO').NLST5
         PRINT GEN
         AGO   .LST5
.NLST5   ANOP
         PRINT NOGEN
.LST5    ANOP
         IKJEFFDF DFDSECT=YES
&P.DATA  DSECT ,              RESUME ORIGINAL DSECT
         PRINT GEN
&P.DFPL  DS    5A             DAIRFAIL PARAMETER LIST
&P.DFRC  DS    F              SERVICE ROUTINE RETURN CODE
&P.DFID  DS    H              DAIRFAIL ID
&P.FO2PT DS    F              DAIRFAIL IKJEFF02 POINTER
.NODF    ANOP
         MNOTE *,'       CVT    DSECT=YES,LIST=NO'
         PRINT NOGEN
         CVT   DSECT=YES,LIST=NO
         POP   PRINT
&P.DATA  DSECT ,              RESUME ORIGINAL DSECT
         MEND
./ ADD NAME=CPEND    0100-13007-13007-1401-00005-00005-00000-FILE300
         MACRO
         CPEND
         GBLC  &P
&P.LEN   EQU   *-&P.DATA
         MEND
./ ADD NAME=CPENTER  0100-13007-13007-1401-00062-00062-00000-FILE300
         MACRO
&CPNAME  CPENTER &PARM=11,        PARAMETER REGISTER                   X
               &BASE=12,          PROGRAM BASE REGISTER                X
               &WORKID=CPWORK,    NAME OF COMMAND PROCESSOR WORKAREA   X
               &SP=0,             SUBPOOL FOR WORKAREA                 X
               &WRKLN=72+32,      LENGTH OF WORKAREA                   X
               &EXIT=EXIT,        ADDR. OF EXIT                        X
               &PCL=PCL           NAME OF PARSE CONTROL LIST
&CPNAME  RENTER PARM=&PARM,BASE=&BASE,WORKID=&WORKID,SP=&SP,           X
               WRKLN=&WRKLN,PRMSECT=PARMS
         SPACE 5
         MNOTE *,'**** R&PARM POINTS TO PARM LIST'
         MNOTE *,'**** R&BASE IS THE PROGRAM BASE'
         MNOTE *,'**** R13 POINTS TO THE WORKAREA'
         EJECT
*****
*****    INITILIZE PPL
*****
         SPACE 5
         LM    2,5,CPPLCBUF       GET PARMS
         ST    2,PPLCBUF          STORE
         ST    3,PPLUPT           STORE
         LA    4,WORKECB          GET ECB ADDR.
         ST    5,PPLECT           STORE ECT ADDR.
         ST    4,PPLECB           STORE ECB ADDR
         SR    5,5                GET A ZERO
         ST    5,WORKECB          SET ZERO ECB
         L     4,=V(&PCL)         ADDR. OF PARM
         ST    4,PPLPCL           STORE IN PARM LIST
         LA    4,PPLANS           GET ADDR. OF ANSWER PLACE
         ST    4,PPLANSP          STORE IN PARM LIST
         EJECT
*****
*****    NOW INVOKE PARSE FOR PARAMETERS
*****
         SPACE 5
         LA    1,PPLUPT           GET ADDR. OF PARM LIST
         LINK  EP=IKJPARS         LINK TO PARSE ROUTINE
         LTR   15,15              BAD RETURN
         BE    CONTINUE           NO ... CONTINUE PROCESSING
&EXIT    REXIT RC=(15)            RETURN
         EJECT
PARMS    DSECT
CPPLCBUF DS    A                  ADDR. OF COMMAND BUFFER
CPPLUPT  DS    A                  ADDR. USER PROFILE TABLE
CPPLPSCB DS    A                  ADDR. OF ECB
CPPLECT  DS    A                  ADDR. OF ECT
         SPACE 5
&WORKID  DSECT
         DS    18F                SAVEAREA
PPLUPT   DS    A                  ADDR. OF UPT
PPLECT   DS    A                  ADDR. OF ECT
PPLECB   DS    A                  ADDR. OF ECB
PPLPCL   DS    A                  ADDR. OF PCL
PPLANSP  DC    A(PPLANS)
PPLCBUF  DS    A                  ADDR. OF COMMAND BUFFER
PPLUWA   DS    A                  ADDR. OF USER WORKAREA
PPLANS   DS    A                  ADDR. OF ANSWER PLACE
WORKECB  DS    A                  ECB
&CPNAME  CSECT ,                  RENTER PROGRAM CSECT
CONTINUE DS    0H                 CONTINUE WITH CP
         MEND
./ ADD NAME=CPENTRY  0100-13007-13007-1401-00018-00018-00000-FILE300
         MACRO
&L       CPENTRY   &ID=*,&STORAGE=@STORAGE,&SIZE=@SIZE,&SPN=,          +
               &PLBASE=R9,&PL=CPPL
.* GENE CZARCINSKI,  19MAY73
&L       START     0
         REGS
         SAVE      (14,12),,&ID
         LR        R12,R15             INIT PGM BASE REG
         USING     &L,R12
         LR        &PLBASE,R1          INIT PARM LIST BASE REG
         USING     &PL,&PLBASE
         GETMAIN   R,LV=72+&SIZE,SP=&SPN
         ST        R13,4(R1)           INIT/LINK SAVE AREAS
         ST        R1,8(R13)
         LR        R13,R1
         LA        R11,72(R1)          INIT STORAGE BASE REG
         USING     &STORAGE,R11
         MEND      CPENTRY
./ ADD NAME=CPEXIT   0100-13007-13007-1401-00010-00010-00000-FILE300
         MACRO
&L       CPEXIT    &SIZE=@SIZE,&RC=0,&SPN=
.* GENE CZARCINSKI,  19MAY73
** EXIT FROM A COMMAND PROCESSOR MODULE
&L       LR        R1,R13              A(GOTTEN CORE)
         L         R13,4(R13)          RESTORE OLD SAVEAREA PNTR
         FREEMAIN  R,LV=72+&SIZE,A=(1),SP=&SPN
         LA        R15,&RC             LOAD RC INTO REG 15
         RETURN    (14,12),T,RC=(15)
         MEND      CPEXIT
./ ADD NAME=CPINIT   0111-13007-13007-1352-00099-00080-00000-SBGOLOB
         MACRO
&NAME    CPINIT &IOPL=NO,&PCL=NONE,&DYN=NO,&PREFIX=IPG,&AM=,&RM=
.*              AM SHOULD BE CODED=24 OR 31 OR 64
.*              RM SHOULD BE CODED=24 OR ANY
         GBLC  &GIOPL
         GBLC  &GPCL
         GBLC  &GDYN
         GBLC  &P
         LCLA  &A
.*   CHECK THE VALIDITY OF THE PREFIX (MUST BE <= 3 CHARS)
         AIF   (K'&PREFIX LE 3).PFXOK
         MNOTE 8,'PREFIX > 3 CHARS, SHORTENED'
&P       SETC  '&PREFIX'(1,3)
         AGO   .PFXEND
.PFXOK   ANOP
&P       SETC  '&PREFIX'
.PFXEND  ANOP
&GIOPL   SETC  '&IOPL'
&GPCL    SETC  '&PCL'
&GDYN    SETC  '&DYN'
&NAME    CSECT
         AIF   ('&AM' EQ '24').YESA24
         AIF   ('&AM' EQ '31').YESA31
         AIF   ('&AM' EQ '64').YESA64
         AGO   .YESA24
.YESA64  ANOP
&NAME    AMODE 64
         AGO   .FINAMO
.YESA31  ANOP
&NAME    AMODE 31
         AGO   .FINAMO
.YESA24  ANOP
&NAME    AMODE 24
         AIF   ('&RM' NE 'ANY').RMNOT2
         MNOTE 4,'RMODE HAS BEEN CHANGED TO 24'
.RMNOT2  ANOP
         AGO   .RM24
.FINAMO  ANOP
         AIF   ('&RM' EQ 'ANY').RMANY
.RM24    ANOP
&NAME    RMODE 24
         AGO   .FINRMO
.RMANY   ANOP
&NAME    RMODE ANY
.FINRMO  ANOP
.*   GENERATE REG EQUATES
&A       SETA  0
.LOOP    ANOP
R&A      EQU   &A
&A       SETA  &A+1
         AIF   (&A LT 16).LOOP
.*   GENERATE THE INITIALIZATION CODE
         MNOTE *,'       SAVE  (14,12),,*'
         SAVE  (14,12),,*
         LR    R10,R15        INITIALIZE BASE REG
         USING &NAME,R10      ESTABLISH ADDRESSIBILITY
         MNOTE *,'       GETMAIN R,LV=&P.LEN,SP=0'
         GETMAIN R,LV=&P.LEN,SP=0
         ST    R13,4(R1)     SAVE THE BACK CHAIN
         ST    R1,8(R13)
         LR    R13,R1         R13 => DYNAMIC STORAGE
         USING &P.DATA,R13
******************************************
*  INITIALIZE THE CONTROL BLOCKS         *
******************************************
         L     R1,4(R13)
         L     R1,24(R1)      R1 => CPPL
         USING CPPL,R1
         AIF   ('&IOPL' EQ 'NO').NOIOPL
*  FILL IN THE UPT, ECT, AND ECB FIELDS OF THE IOPL
.*   AND LEAVE THE POINTER TO THE PARM BLOCK EMPTY
         MVC   &P.IOPL+(IOPLUPT-IOPL)(4),CPPLUPT
         MVC   &P.IOPL+(IOPLECT-IOPL)(4),CPPLECT
         XC    &P.ECB(4),&P.ECB   ZERO THE ECB
         LA    R2,&P.ECB
         ST    R2,&P.IOPL+(IOPLECB-IOPL)
.NOIOPL  ANOP
         AIF   ('&PCL' EQ 'NONE').NOPCL
*  FILL IN ALL THE FIELDS OF THE PARSE PARAMETER LIST (PPL)
         MVC   &P.PPL+(PPLUPT-PPL)(4),CPPLUPT
         MVC   &P.PPL+(PPLECT-PPL)(4),CPPLECT
         LA    R2,&P.ECB
         ST    R2,&P.PPL+(PPLECB-PPL)
         L     R2,&P.PCLAD
         ST    R2,&P.PPL+(PPLPCL-PPL)
         LA    R2,&P.ANS
         ST    R2,&P.PPL+(PPLANS-PPL)
         MVC   &P.PPL+(PPLCBUF-PPL),CPPLCBUF
         XC    &P.PPL+(PPLUWA-PPL),&P.PPL+(PPLUWA-PPL)
.NOPCL   ANOP
         AIF   ('&DYN' EQ 'NO').NODYN
*  FILL IN THE DYNAMIC ALLOCATION REQUEST BLOCK POINTER
         LA    R2,&P.RB
         ST    R2,&P.RBPTR
         OI    &P.RBPTR,S99RBPND
.NODYN   ANOP
         DROP  R1
         EJECT
         MEND
./ ADD NAME=CPINITO  0100-13007-13007-1401-00073-00073-00000-FILE300
         MACRO
&NAME    CPINIT &IOPL=NO,&PCL=NONE,&DYN=NO,&PREFIX=IPG
         GBLC  &GIOPL
         GBLC  &GPCL
         GBLC  &GDYN
         GBLC  &P
         LCLA  &A
.*   CHECK THE VALIDITY OF THE PREFIX (MUST BE <= 3 CHARS)
         AIF   (K'&PREFIX LE 3).PFXOK
         MNOTE 8,'PREFIX > 3 CHARS, SHORTENED'
&P       SETC  '&PREFIX'(1,3)
         AGO   .PFXEND
.PFXOK   ANOP
&P       SETC  '&PREFIX'
.PFXEND  ANOP
&GIOPL   SETC  '&IOPL'
&GPCL    SETC  '&PCL'
&GDYN    SETC  '&DYN'
&NAME    CSECT
.*   GENERATE REG EQUATES
&A       SETA  0
.LOOP    ANOP
R&A      EQU   &A
&A       SETA  &A+1
         AIF   (&A LT 16).LOOP
.*   GENERATE THE INITIALIZATION CODE
         MNOTE *,'       SAVE  (14,12),,*'
         SAVE  (14,12),,*
         LR    R10,R15        INITIALIZE BASE REG
         USING &NAME,R10      ESTABLISH ADDRESSIBILITY
         MNOTE *,'       GETMAIN R,LV=&P.LEN,SP=0'
         GETMAIN R,LV=&P.LEN,SP=0
         ST    R13,4(R1)     SAVE THE BACK CHAIN
         ST    R1,8(R13)
         LR    R13,R1         R13 => DYNAMIC STORAGE
         USING &P.DATA,R13
******************************************
*  INITIALIZE THE CONTROL BLOCKS         *
******************************************
         L     R1,4(R13)
         L     R1,24(R1)      R1 => CPPL
         USING CPPL,R1
         AIF   ('&IOPL' EQ 'NO').NOIOPL
*  FILL IN THE UPT, ECT, AND ECB FIELDS OF THE IOPL
.*   AND LEAVE THE POINTER TO THE PARM BLOCK EMPTY
         MVC   &P.IOPL+(IOPLUPT-IOPL)(4),CPPLUPT
         MVC   &P.IOPL+(IOPLECT-IOPL)(4),CPPLECT
         XC    &P.ECB(4),&P.ECB   ZERO THE ECB
         LA    R2,&P.ECB
         ST    R2,&P.IOPL+(IOPLECB-IOPL)
.NOIOPL  ANOP
         AIF   ('&PCL' EQ 'NONE').NOPCL
*  FILL IN ALL THE FIELDS OF THE PARSE PARAMETER LIST (PPL)
         MVC   &P.PPL+(PPLUPT-PPL)(4),CPPLUPT
         MVC   &P.PPL+(PPLECT-PPL)(4),CPPLECT
         LA    R2,&P.ECB
         ST    R2,&P.PPL+(PPLECB-PPL)
         L     R2,&P.PCLAD
         ST    R2,&P.PPL+(PPLPCL-PPL)
         LA    R2,&P.ANS
         ST    R2,&P.PPL+(PPLANS-PPL)
         MVC   &P.PPL+(PPLCBUF-PPL),CPPLCBUF
         XC    &P.PPL+(PPLUWA-PPL),&P.PPL+(PPLUWA-PPL)
.NOPCL   ANOP
         AIF   ('&DYN' EQ 'NO').NODYN
*  FILL IN THE DYNAMIC ALLOCATION REQUEST BLOCK POINTER
         LA    R2,&P.RB
         ST    R2,&P.RBPTR
         OI    &P.RBPTR,S99RBPND
.NODYN   ANOP
         DROP  R1
         EJECT
         MEND
./ ADD NAME=CVDT     0100-13007-13007-1401-00015-00015-00000-FILE300
         MACRO
&L       CVDT  &O
.*
&L       XR    R15,R15
         IC    R15,DS1&O
         CVD   R15,DWD
         ICM   R14,B'0011',DWD+L'DWD-2
         ICM   R15,B'0011',DS1&O+1
         CVD   R15,DWD
         SRL   R14,4
         STC   R14,DWD+5
         ED    FMT&O,DWD+5
         SPACE
.*
         MEND
./ ADD NAME=CVRT     0100-13007-13007-1401-00022-00022-00000-FILE300
         MACRO
&L       CVRT  &O,&ADD=0,&OFFSET=0
.*
&L       XR    R15,R15
         LA    R1,1
         SLA   R1,(L'DS1&O-&OFFSET)
         BCTR  R1,0
         EX    R1,*+L'*+4
         B     *+L'*+4
         ICM   R15,*-*,DS1&O+&OFFSET
.*
         AIF   (&ADD EQ 0).CVD
.*
         LA    R15,&ADD.(R15)
.*
.CVD     ANOP
.*
         CVD   R15,DWD
         ED    FMT&O,DWD+8-((L'FMT&O+1)/2)
         SPACE
.*
         MEND
./ ADD NAME=DA08BLD  0100-13007-13007-1401-00062-00062-00000-FILE300
         MACRO
&L     DA08BLD &DSN,&VOLID,&DISP=(SHR,KEEP,KEEP)
.*
.*   DAO8BLD IS USED TO COMPLETE A CODE 08 DAPB FROM PDE'S
.*   RETURNED FROM IKJPARS FOR DSNAME, VOLUME SERIAL, AND
.*   ALLOCATION DATA (NOT YET SUPPORTED).
.*   DA08BLD ASSUMES THE ADDRESSABILITY OF THE DAPB VIA THE
.*   FIELD NAMES DEFINED BY THE IKJDAP08 MACRO.
.*
*
&L       L     R1,&DSN+0
         L     R15,DA08PDSN
         LH    R14,&DSN+4
         STH   R14,0(R15)
         BCTR  R14,0
         EX    R14,*+L'*+4
         B     *+L'*+6
         MVC   2(*-*,R15),0(R1)
         NI    DA08CTL,X'FF'-DA08UID
         TM    &DSN+6,B'01000000'
         BNZ   *+L'*+4
         OI    DA08CTL,DA08UID
         SPACE
         TM    &DSN+14,B'10000000'
         BZ    *+L'*+4+4+2+4+4+6
         LH    R14,&DSN+12
         L     R1,&DSN+8
         BCTR  R14,0
         EX    R14,*+L'*+4
         B     *+L'*+6
         MVC   DA08MNM(*-*),0(R1)
         SPACE
         TM    &DSN+22,B'10000000'
         BZ    *+L'*+4+4+2+4+4+6
         LH    R14,&DSN+20
         L     R1,&DSN+16
         BCTR  R14,0
         EX    R14,*+L'*+4
         B     *+L'*+6
         MVC   DA08PSWD(*-*),0(R1)
         SPACE
         MVI   DA08DSP1,DA08&DISP(1)
         MVI   DA08DPS2,DA08&DISP(2)
         MVI   DA08DPS3,DA08&DISP(3)
         SPACE
.VOLID   AIF   (T'&VOLID EQ 'O').NEW
.*
         TM    &VOLID+6,B'10000000'
         BZ    *+L'*+4+4+4+4+2+4+4+6
         L     R1,&VOLID+0
         LH    R14,&VOLID+4
         CLI   0(R1),C'*'
         BE    *+L'*+2+4+4+6
         BCTR  R14,0
         EX    R14,*+L'*+4
         B     *+L'*+6
         MVC   DA08SER(*-*),0(R1)
         SPACE
.*
.NEW     AIF   (('&DISP(1)' NE 'NEW') AND ('&DISP(1)' NE 'MOD')).END
.*       MNOTE 4,'DA08BLD - DISP=NEW NOT YET SUPPORTED'
.END     MEND
./ ADD NAME=DCS      0100-13007-13007-1401-00287-00287-00000-FILE300
         MACRO
&NAME    DCS
.**********************************************************************
.*                                                                    *
.*        DCS  -  DEFINE CONSTANT FOR SCREEN                          *
.*                                                                    *
.*        WRITTEN BY BILL GODFREY                                     *
.*        PLANNING RESEARCH CORPORATION                               *
.*        PRC COMPUTER CENTER, MCLEAN VA 22101                        *
.*        DATE WRITTEN. JANUARY 8 1981.                               *
.*        DATE UPDATED. MARCH 18 1982. (ROW AND COL IN PARENS)        *
.*                                                                    *
.*        THIS MACRO IS USED FOR CODING A FULLSCREEN 3270 DISPLAY.    *
.*                                                                    *
.*        SAMPLE                                                      *
.*           DCS    AL1(WCC),SBA,(1,1),RTA,(7,1),X'00',IC             *
.*                                                                    *
.*        IT SIMPLIFIES THE CODING OF A SCREEN IN THE FOLLOWING WAYS. *
.*        .  BUFFER ADDRESSES ARE SPECIFIED AS ROW AND COLUMN NUM-    *
.*           BER.  THE MACRO TRANSLATES THEM INTO THE 3270 CODE.      *
.*        .  ORDERS ARE SPECIFIED BY NAME, SUCH AS 'SBA' AND 'SF',    *
.*           SO YOU DONT HAVE TO KNOW THE HEX CODES FOR THEM,         *
.*        .  COMMONLY USED ATTRIBUTE BYTES ARE SPECIFIED BY NAME      *
.*           (A SET OF RESERVED NAMES) SO YOU DONT HAVE TO KNOW       *
.*           THE HEX CODES FOR THEM.                                  *
.*        .  IT SAVES A LOT OF DOCUMENTATION WORK, AND MAKES          *
.*           THE CODE EASIER FOR OTHERS TO UNDERSTAND.                *
.*                                                                    *
.*        THE USER OF THE MACRO MUST STILL UNDERSTAND HOW A SCREEN    *
.*        IS CONSTRUCTED BEFORE USING IT. THE MACRO MERELY MAKES IT   *
.*        EASIER TO SPECIFY THE VALUES.  IT DOES VERY LITTLE ERROR    *
.*        CHECKING.  FOR INSTANCE, IT DOES NOT CHECK TO SEE IF        *
.*        YOU FOLLOW AN 'SBA' WITH A BUFFER ADDRESS.  IT IS POSSIBLE  *
.*        TO CODE A THOROUGHLY INVALID SCREEN.                        *
.*                                                                    *
.*        THE MACRO MAY HAVE ANY NUMBER OF OPERANDS, CONSISTING OF    *
.*        ANY COMBINATION OF THE FOLLOWING.                           *
.*                                                                    *
.*        .  AN ORDER.                                                *
.*           VALID ORDERS ARE: SBA, SF, RTA, IC, PT, EUA.             *
.*        .  A BUFFER ADDRESS IN PARENTHESES.                         *
.*           IF AN OPERAND IS IN PARENTHESES, IT IS ASSUMED THAT      *
.*           THE ROW AND COLUMN NUMBER ARE BETWEEN THE PARENS,        *
.*           SEPARATED BY A COMMA.  EXAMPLE: (1,1)                    *
.*           THIS FORM OF BUFFER ADDRESS IS NEW AS OF MARCH 18 1982.  *
.*        .  A ROW OR COLUMN NUMBER OF A BUFFER ADDRESS (OLD FORMAT). *
.*           IF AN OPERAND IS NUMERIC, IT IS ASSUMED TO BE            *
.*           A ROW OR COLUMN NUMBER.  IT TAKES 2 OPERANDS TO          *
.*           SPECIFY THE BUFFER ADDRESS (ROW AND COLUMN) SO NUMERIC   *
.*           OPERANDS MUST ALWAYS BE SPECIFIED IN PAIRS, THE          *
.*           FIRST BEING THE ROW AND THE SECOND BEING THE COLUMN.     *
.*           THIS FORMAT IS SUPPORTED ONLY FOR COMPATIBILITY WITH     *
.*           THE ORIGINAL VERSION OF THIS MACRO.                      *
.*        .  AN ATTRIBUTE BYTE.                                       *
.*           VALID ATTRIBUTE BYTES ARE:                               *
.*           UNPLO -  UNPROTECTED NORMAL INTENSITY                    *
.*           UNPHI  - UNPROTECTED HIGH INTENSITY                      *
.*           UNPNP  - UNPROTECTED NO-DISPLAY                          *
.*           PROLO  - PROTECTED NORMAL INTENSITY                      *
.*           PROLOS - PROTECTED NORMAL INTENSITY AUTO-SKIP            *
.*           PROHI  - PROTECTED HIGH INTENSITY                        *
.*           PROHIS - PROTECTED HIGH INTENSITY AUTO-SKIP              *
.*        .  A HEX, CHARACTER, OR ADDRESS CONSTANT.                   *
.*           FOR EXAMPLE, X'00', OR C'ENTER SIGNON'                   *
.*           THIS CAN BE USED FOR DATA WITHIN FIELDS OR FOR           *
.*           ATTRIBUTE BYTES, ORDERS, THE 'WCC', OR BUFFER            *
.*           ADDRESSES (IF YOU WANT TO FIGURE THEM OUT).              *
.*                                                                    *
.*        IF THE OPERANDS DO NOT ALL FIT ON ONE LINE, YOU CAN         *
.*        EITHER CONTINUE THE LINE IN THE STANDARD ASSEMBLER WAY      *
.*        OR CODE THE MACRO AGAIN ON THE NEXT LINE WITH THE           *
.*        REMAINING OPERANDS.  THE RESULT IS THE SAME EITHER WAY.     *
.*                                                                    *
.*        THE BUFFER ADDRESS CONVERSIONS ARE FOR A                    *
.*        SCREEN SIZE OF 24 ROWS BY 80 COLUMNS. FOR SCREENS           *
.*        OF OTHER DIMENSIONS (43 BY 80, 12 BY 40) THE MACRO          *
.*        NEEDS ONLY A FEW CHANGES.                                   *
.*                                                                    *