*          DATA SET TSOPLIF    AT LEVEL 002 AS OF 11/12/80
PLIP     TITLE 'PLIF PROMPTER   DEFINITIONS'                            00001
         MACRO                                                          00002
&NAME    LDDN  &REG,&DD                                                 00003
&NAME    L     &REG,@DAIR28                                             00004
         L     &REG,DA28OPTR-DAPB28+(&DD-DDNAMES-2)/2(&REG)             00005
         MEND                                                           00006
         LCLC  &SYSOUT,&SYSDA                                           00007
*              DELETE THE FOLLOWING CARD IF DEFAULT TSO UNIT FOR        00008
*              SYSOUT DATA SETS IS DESIRED                              00009
&SYSOUT  SETC  'SYSDA'                                                  00010
*              DELETE THE FOLLOWING CARD IF DEFAULT  TSO  UNIT  FOR     00011
*              WORK DATASETS B     DESIRED                              00012
&SYSDA   SETC  'SYSDA'                                                  00013
FF       EQU   X'FF'                                                    00014
         TITLE 'PLIF PROMPTER   MAIN LINE'                              00015
PLIF     CSECT                                                          00016
         SAVE  (14,12),,PLIF-&SYSDATE-&SYSTIME                          00017
         LR    R12,R15        GET EPA                                   00018
         USING PLIF,R12                                                 00019
         GETMAIN              R,LV=WKAL    GETMAIN SOME CORE            00020
         ST    R1,8(13)                                                 00021
         ST    13,4(R1)                                                 00022
         LM    13,1,8(13)     GET ENTRY REGS BACK                       00023
         USING SAVE,13                                                  00024
         XC    SCRATCH(ENDSAVE-SCRATCH),SCRATCH                         00025
         SPACE 0                                                        00026
         LR    R11,R1         SAVE ENTRY REG                            00027
         USING CPPL,R11       TELL ASSEMBLER                            00028
         LA    R0,PARMS       INITIALIZE                                00029
         LA    R1,DDNAMES     PARMLIST                                  00030
         STM   R0,R1,PARMADDR                                           00031
         MVI   PARMADDR+4,X'80'     SIGNAL END OF LST                   00032
         SPACE 1                                                        00033
         LA    R0,SYSEND-DDNAMES-2   NUMBER OF DDNAMES                  00034
         STH   R0,DDNAMES                                               00035
         MVC   PARMS(3),=X'000040'  INITIALIZE LIST                     00036
         MVC   PARMS+3(251),PARMS+2     ALL BLANKS                      00037
         SPACE 1                                                        00038
*              INITIALIZE PUTLINE PARAMETER LIST                        00039
         LA    R1,PTPL                                                  00040
         USING IOPL,R1                                                  00041
         MVC   IOPLUPT,CPPLUPT                                          00042
         MVC   IOPLECT,CPPLECT                                          00043
         LA    R2,ECB                                                   00044
         ST    R2,IOPLECB                                               00045
         DROP  R1                                                       00046
         MVI   SPMAC,MIX                                                00047
         MVI   SPMD,MIX                                                 00048
         MVI   SPLIB,MIX                                                00049
         MVI   SPD,NO                                                   00050
         BALR  R12,0          GET A BASE                                00051
         USING *,R12          TELL ASSEMBLER                            00052
         EJECT                                                          00053
*              BUILD PARSE LIST                                         00054
         LA    R1,PARSEPL                                               00055
         USING PPL,R1                                                   00056
         MVC   PPLUPT,CPPLUPT  UPT                                      00057
         MVC   PPLECT,CPPLECT                                           00058
         LA    R2,ECB                                                   00059
         ST    R2,PPLECB      ECB                                       00060
         L     R9,=A(PLIFPARM)                                          00061
         ST    R9,PPLPCL      PCL                                       00062
         MVC   PPLCBUF,CPPLCBUF                                         00063
         LA    R3,@PDE                                                  00064
         ST    R3,PPLANS                                                00065
         LINK  EP=IKJPARS                                               00066
         LTR   R15,R15                                                  00067
         BZ    PLIF2                                                    00068
         BAL   R14,FAIL                                                 00069
PLIF2    EQU   *                                                        00070
         USING PLIFPARM,R9                                              00071
         L     R10,@PDE       GET THE PDE                               00072
         USING PDL,R10                                                  00073
         DROP  R1                                                       00074
         LA    R1,PCEFIRST                                              00075
         BAL   R14,EASYKEY    GO DO THEEASY ONES                        00076
*              INITIALIZE THE SUBFIELD PARMS                            00077
SFIA     TM    SIZE+6,X'80'   SIZE PRESENT?                             00078
         BZ    SFIB           NO TRY NEXT                               00079
         LA    R1,=C'SIZE='                                             00080
         LA    R2,4                                                     00081
         BAL   R14,APEND                                                00082
         L     R1,SIZE        ADDR                                      00083
         LH    R2,SIZE+4      LENGTH                                    00084
         BCTR  R2,0           -1                                        00085
         BAL   R14,APENDC     ADD THE VALUE WITHOUT COMMA               00086
         SPACE 1                                                        00087
SFIB     TM    OPT+6,X'80'    OPT SPECIFIED                             00088
         BZ    SFIC           NO TRY NEXT                               00089
         LA    R1,=C'OPT='                                              00090
         LA    R2,3                                                     00091
         BAL   R14,APEND                                                00092
         L     R1,OPT                                                   00093
         LH    R2,OPT+4                                                 00094
         BCTR  R2,0                                                     00095
         BAL   R14,APENDC                                               00096
         SPACE 1                                                        00097
SFIC     TM    OBJNM+6,X'80'    OBJNAME?                                00098
         BZ    SFID           NO                                        00099
         LA    R1,=C'N='                                                00100
         LA    R2,1                                                     00101
         BAL   R14,APEND                                                00102
         L     R1,OBJNM                                                 00103
         LH    R2,OBJNM+4                                               00104
         BCTR  R2,0                                                     00105
         BAL   R14,APENDC                                               00106
         SPACE 1                                                        00107
SFID     TM    SM1+6,X'80'    SORMGIN                                   00108
         BZ    SFIE           NO                                        00109
         LA    R1,=C'SM=('                                              00110
         LA    R2,3                                                     00111
         BAL   R14,APEND                                                00112
         L     R1,SM1                                                   00113
         LH    R2,SM1+4                                                 00114
         BCTR  R2,0                                                     00115
         BAL   R14,APENDC                                               00116
         L     R1,SM2                                                   00117
         LH    R2,SM2+4                                                 00118
         BCTR  R2,0                                                     00119
         BAL   R14,APEND      NEED COMMA THIS TIME                      00120
         TM    SM3+6,X'80'    GET THE THIRD PARM                        00121
         BZ    SFID2          NO                                        00122
         L     R1,SM3                                                   00123
         LH    R2,SM3+4                                                 00124
         BCTR  R2,0                                                     00125
         BAL   R14,APEND                                                00126
SFID2    DS    0H                                                       00127
         LA    R1,=C')'                                                 00128
         LA    R2,0                                                     00129
         BAL   R14,APENDC                                               00130
         SPACE 1                                                        00131
SFIE     TM    LINECNT+6,X'80'                                          00132
         BZ    SFIF                                                     00133
         LA    R1,=C'LC='                                               00134
         LA    R2,2                                                     00135
         BAL   R14,APEND                                                00136
         L     R1,LINECNT                                               00137
         LH    R2,LINECNT+4                                             00138
         BCTR  R2,0                                                     00139
         BAL   R14,APENDC                                               00140
SFIF     CLI   MACDCK+1,0     DID HE SPECIFY A PREF                     00141
         BZ    SFIG           NO                                        00142
         CLI   MACDCK+1,2                                               00143
         BH    SFIF3          HE DOESN'T WANT IT                        00144
         MVI   SPMD,YES                                                 00145
         LA    R1,=C'MD'                                                00146
         LA    R2,1                                                     00147
         B     SFIF4                                                    00148
         SPACE 1                                                        00149
SFIF3    MVI   SPMD,NO                                                  00150
         LA    R1,=C'NMD'                                               00151
         LA    R2,2                                                     00152
SFIF4    BAL   R14,APEND                                                00153
         SPACE 1                                                        00154
SFIG     CLI   MACRO+1,0      DID HE SPECIFY MACRO                      00155
         BZ    SFIG3          NO                                        00156
         CLI   MACRO+1,2      EXCLUDE IT                                00157
         BH    SFIG2          YES                                       00158
         MVI   SPMAC,YES      HE WANTS IT                               00159
         B     SFIH                                                     00160
SFIG2    MVI   SPMAC,NO       DOESN'T WANT IT                           00161
         B     SFIH                                                     00162
         SPACE 1                                                        00163
SFIG3    TM    SPMD,YES       DOESN'T CARE DID HE ASKF OF DECK          00164
         BNO   SFIH           NO                                        00165
         LA    R1,=C'MACRO'   THEN FORCE MACRO                          00166
         LA    R2,4                                                     00167
         BAL   R14,APEND                                                00168
         MVI   SPMAC,YES                                                00169
         SPACE 2                                                        00170
SFIH     DS    0H                                                       00171
         EJECT                                                          00172
*              INITIALIZE ALL DAIR BLOCKS                               00173
         LA    R1,DAIRPL                                                00174
         BAL   R14,BUILDAIR                                             00175
         SPACE 4                                                        00176
*              BEGIN ALLOCATION                                         00177
ALCIN    LDDN  R9,SYSIN                                                 00178
         USING DAPB08,R9      R9=DAPB08                                 00179
         MVC   DA08CD,=X'0008'      SET ALLOCAT CODE                    00180
         LA    R1,=C'PLI'     QUALIFIER                                 00181
         LA    R2,3           LENGTH                                    00182
         LA    R3,DSIN        PDE                                       00183
         BAL   R14,BUILDDSN                                             00184
         B     *+4(R15)                                                 00185
         B     ALCIN3         RC=0 HAVE SIMPLE                          00186
         B     ALCIN4         RC=4 NOT SIMPLE                           00187
         B     ALCIN7         RC=8 ALLOCATE TO TERM                     00188
         SPACE 1                                                        00189
ALCIN3   LM    R5,R6,DSIN     SAVE SIMPLE NAME AND LENGTH               00190
         B     ALCIN4B                                                  00191
*              USER MEMBER NAME FOR SIMPLE NAME                         00192
         SPACE 1                                                        00193
ALCIN4   LM    R5,R6,DSIN+8   USE MEMBER NAME FOR SIMPLE                00194
ALCIN4B  STM   R5,R6,SIMPLE   FOR POSSIBLE USE LATER                    00195
ALCIN5   OI    DA08DSP1,DA08SHR    FLAG SHARE                           00196
ALCIN7   DS    0H                                                       00197
         SPACE 4                                                        00198
*              SYSLIB ALLOCATION                                        00199
ALCLIB   TM    SPMAC,YES                                                00200
         BNO   ALCLIB3        BRANCH IF NOT SPECIFIED                   00201
         CLI   LIB+1,0        LIB PARM SPECIFIED                        00202
         BNZ   ALCLIB5        YEAH HE SPECIFIED IT                      00203
         PUTLINE PARM=MSG001,MF=(E,PTPL)  LIB REQUIRED IF MACRO SP      00204
         B QUIT                                                         00205
         SPACE 1                                                        00206
ALCLIB3  BM    ALCLIB4        DOESN'T CARE                              00207
         CLI   LIB+1,0        LPECIFY LIB                               00208
         BZ    ALCLIB9        NO                                        00209
         PUTLINE  PARM=MSG002,MF=(E,PTPL)  LIB AND NOMACRO SPECIFED     00210
         B     QUIT                                                     00211
*                                                                       00212
ALCLIB4  CLI   LIB+1,0        NO LIB SPEC                               00213
         BZ    ALCLIB9                                                  00214
         LA    R1,=C'MACRO'   SPECIFY MACRO SINCE HE SP LIB             00215
         LA    R2,4                                                     00216
         BAL   R14,APEND                                                00217
         MVI   SPMAC,YES                                                00218
*                                                                       00219
ALCLIB5  LDDN  R9,SYSLIB                                                00220
         USING DAPB08,R9      R9 = DAIR BLOCK                           00221
         LA    R3,DSLIB                                                 00222
         LA    R1,BLANKS      NO QUALIFIER                              00223
         LA    R2,0                                                     00224
         BAL   R14,BUILDDSN   MOVE IN DSN STUFF                         00225
         MVC   DA08CD,=X'0008'                                          00226
         OI    DA08DSP1,DA08SHR    FLAG SHARE                           00227
         CLI   24(R3),FF      END OF LIST                               00228
         BE    ALCLIB9                                                  00229
         LDDN  R9,SYSLIB2     NO GET LIB 2                              00230
         L     R3,24(R3)      NEXT                                      00231
         BAL   R14,BUILDDSN                                             00232
         MVC   DA08CD,=X'0008'                                          00233
         OI    DA08DSP1,DA08SHR                                         00234
         SPACE                                                          00235
         CLI   24(R3),FF      END OF LIST YET?                          00236
         BE    ALCLIB9        YUP                                       00237
         LDDN  R9,SYSLIB3     GET LIB 3                                 00238
         L     R3,24(R3)      NEXT                                      00239
         BAL   R14,BUILDDSN                                             00240
         MVC   DA08CD,=X'0008'                                          00241
         OI    DA08DSP1,DA08SHR                                         00242
         SPACE 1                                                        00243
         CLI   24(R3),FF      END OF LIST YET?                          00244
         BE    ALCLIB9        YUP                                       00245
         PUTLINE  PARM=MSG009,MF=(E,PTPL)  TOO MAN Y  LIBS              00246
         B     QUIT                                                     00247
ALCLIB9  DS    0H                                                       00248
         EJECT                                                          00249
ALCPRNT  LDDN  R9,SYSPRINT    ALLOCATE SYSPRINT DATASET                 00250
         USING DAPB08,R9                                                00251
         CLI   PRINT+1,1      DSN SPECIFIED                             00252
         BE    ALCPRNT3       YES                                       00253
*              ALLOCATE TO SYSOUT                                       00254
         USING DAPB30,R9                                                00255
         XC    DAPB30(64),DAPB30   CLEAR WHOLE BLOCK                    00256
         MVC   DA30CD,=X'0030'     SYSOUT CALL                          00257
         MVC   DA30DDN,BLANKS                                           00258
         MVC   DA30UNIT,=CL8'&SYSOUT.'                                  00259
         MVC   DA30SER,BLANKS                                           00260
         LA    R0,0           BLKSIZE                                   00261
         LA    R1,50          DEFAULT   50 TRACKS                       00262
         LA    R2,10          10 SECONDARY                              00263
         STM   R0,R2,DA30BLK PQTY SQTY                                  00264
         MVC   DA30PGNM,BLANKS                                          00265
         MVC   DA30FORM,BLANKS                                          00266
         TM    SYSOUTAP+6,X'80'    PROGRAM NAME SPC                     00267
         BZ    ALCPRNT1       NO                                        00268
         L     R5,SYSOUTAP    PROGRAM NAME                              00269
         LH    R6,SYSOUTAP+4                                            00270
         BCTR  R6,0           -1                                        00271
         EX    R6,*+4                                                   00272
         MVC   DA30PGNM(1),0(R5)                                        00273
         SPACE 1                                                        00274
ALCPRNT1 TM    SYSOUTAF+6,X'80'    FORM SPECIFIED                       00275
         BZ    ALCPRNT2                                                 00276
         L     R5,SYSOUTAF                                              00277
         LH    R6,SYSOUTAF+4                                            00278
         BCTR  R6,0                                                     00279
         EX    R6,*+4                                                   00280
         MVC   DA30FORM(1),0(R5)    FORM NUMBER                         00281
         SPACE 1                                                        00282
ALCPRNT2 DS    0H                                                       00283
         L     R5,SYSOUTA                                               00284
         MVC   DA30OCLS(1),0(R5)                                        00285
         MVI   DA30OCLS+1,C' '                                          00286
         MVC   AOUT,0(R5)     SAVE OUTPUT CLASS FOR FREE                00287
         MVI   DA30CTL,DA30TRKS                                         00288
         B     ALCPRNT9                                                 00289
         SPACE 1                                                        00290
         USING DAPB08,R9                                                00291
ALCPRNT3 TM    DSPRINT+6,X'80'     DSNAME SPECIFIED                     00292
         BO    ALCPRNT5       YEAH                                      00293
         LM    R5,R6,SIMPLE   GET THE SIMPLE QUALIFIER                  00294
         LTR   R6,R6          ANY                                       00295
         BNZ   ALCPRNT4       YUP                                       00296
         PUTLINE  PARM=MSG004,MF=(E,PTPL) MUST HAVE DSNAME              00297
         B QUIT                                                         00298
         SPACE 1                                                        00299
ALCPRNT4 STM   R5,R6,DSPRINT                                            00300
ALCPRNT5 LA    R1,=C'LIST'    QUALIFIER                                 00301
         LA    R2,4           LENGTH                                    00302
         LA    R3,DSPRINT                                               00303
         BAL   R14,BUILDDSN                                             00304
         B     *+4(R15)                                                 00305
         B     ALCPRNT6       RC=0                                      00306
         B     ALCPRNT6       RC=4                                      00307
         B     ALCPRNT9       RC=8 TERMINAL WAS ALLOCATED               00308
ALCPRNT6 BAL   R14,OLDNEW     FIND OUT IF IT ALREADY EXISTS             00309
         TM    DA08DSP1,DA08NEW  IF NEW                                 00310
         BZ    ALCPRNT7       BUT ITS NOT                               00311
         LA    R0,0           SPECIFY SPACE PARMS                       00312
         LA    R1,50          PQTY  50 TRKS                             00313
         LA    R2,10          SECONDARY                                 00314
         SR    R3,R3          NO DIRECTORY                              00315
         CLC   DA08MNM,BLANKS OR IS THERE?                              00316
         BE    *+8                                                      00317
         LA    R3,3           THEN SPECIFY 3 BLOCKS                     00318
         STM   R0,R3,DA08BLK PQTY SQTY DBLKS                            00319
         OI    DA08CTL,DA08TRKS+DA08RLSE                                00320
ALCPRNT7 DS    0H                                                       00321
ALCPRNT9 DS    0H                                                       00322
         EJECT                                                          00323
ALCGO    CLI   LOAD+1,2       NO LOAD                                   00324
         BH    ALCGO7         NO                                        00325
         LA    R1,=C'LOAD'                                              00326
         LA    R2,3                                                     00327
         BAL   R14,APEND      SPECIFY PARAMETER                         00328
         TM    DSGO+6,X'80'   SPECIFY A DSNAME                          00329
         BO    ALCGO4         YEAH                                      00330
         LM    R5,R6,SIMPLE                                             00331
         LTR   R6,R6                                                    00332
         BNZ   ALCGO3                                                   00333
         PUTLINE  PARM=MSG003,MF=(E,PTPL) NAME MUST BE SPEC             00334
         B QUIT                                                         00335
         SPACE 1                                                        00336
ALCGO3   STM   R5,R6,DSGO                                               00337
ALCGO4   LA    R1,=C'OBJ'     DEFAULT NAME                              00338
         LA    R2,3                                                     00339
         LA    R3,DSGO                                                  00340
         LDDN  R9,SYSLIN                                                00341
         BAL   R14,BUILDDSN   BUILD THE DSNAME                          00342
         BAL   R14,OLDNEW                                               00343
         TM    DA08DSP1,DA08NEW     IS IT NEW                           00344
         BZ    ALCGO6         IF NO                                     00345
         LA    R0,400         SET SPACE PARAMETERS                      00346
         LA    R1,200         PRI QTY                                   00347
         LA    R2,100         SEC QTY                                   00348
         STM   R0,R2,DA08BLK PQTY SQTY                                  00349
         CLC   DA08MNM,BLANKS MEMBER SPECIFIED                          00350
         BE    ALCGO5         NO                                        00351
         LA    R3,3           DIRECTORY QUANTITY                        00352
         ST    R3,DA08DQTY                                              00353
ALCGO5   OI    DA08CTL,DA08ABKL    AVERAGE BLOCK LENGT                  00354
ALCGO6   B     ALCGO9                                                   00355
ALCGO7   DS    0H             NOLOAD SPEC                               00356
         LA    R1,=C'NOLOAD'                                            00357
         LA    R2,5                                                     00358
         BAL   R14,APEND                                                00359
ALCGO9   DS    0H                                                       00360
         EJECT                                                          00361
ALCPNCH  TM    SPMD,YES                                                 00362
         BNO   ALCPNCH1                                                 00363
         MVI   SPD,YES        FLAG WE NEED A DECK                       00364
ALCPNCH1 LH    R15,PUNCH                                                00365
         SLL   R15,2          OPTION * 4                                00366
         B     *+4(R15)                                                 00367
         B     ALCPNCH6       O    NOTHING SPECIFIED                    00368
         B     ALCPNCH3       1    DECK                                 00369
         B     ALCPNCH3       2    DECK                                 00370
         B     ALCPNCH4       3    NODECK                               00371
         B     ALCPNCH4       4    ND                                   00372
*        B     *+4            5    SYSPUNCH                             00373
         TM    SPMD,YES       IF MACRO SPEC DON'T FORCE DECK            00374
         BO    ALCPNCH6                                                 00375
ALCPNCH3 LA    R1,=C'DECK'                                              00376
         LA    R2,3                                                     00377
         MVI   SPD,YES        DECK SPECIFIED                            00378
         B     ALCPNCH5                                                 00379
         SPACE 1                                                        00380
ALCPNCH4 LA    R1,=C'NODECK'                                            00381
         LA    R2,5                                                     00382
ALCPNCH5 BAL   R14,APEND                                                00383