         TITLE '   R E L E A S E '
***********************************************************************
*                                                                     *
*        'RELEASE' TSO COMMAND                                        *
*                                                                     *
***********************************************************************
         SPACE
*        WRITTEN BY. BILL GODFREY, PRC (PLANNING RESEARCH CORPORATION).
*        INSTALLATION. PRC, MCLEAN VA.
*        DATE WRITTEN. NOVEMBER 22 1978.
*        DATE UPDATED. AUGUST 3 1981.
*        ATTRIBUTES. RE-ENTRANT.
*        DESCRIPTION.
*            THIS TSO COMMAND RELEASES UNUSED SPACE FROM SEQUENTIAL
*            OR PARTITIONED DATA SETS.
*
*            THE 'LEAVE(NN)' KEYWORD ALLOWS THE USER TO SPECIFY
*            HOW MANY UNUSED TRACKS NOT TO RELEASE.
*
*            THE 'EXTENT' KEYWORD ALLOWS THE USER TO RELEASE ONLY
*            UNUSED EXTENTS, LEAVING THE PRIMARY EXTENT INTACT.
*
*            24MAY79 - OBTAIN ADDED FOR CHECKING CYLINDER ALLOC.
*            24MAY79 - STACK DELETE ADDED.
*            09JUN80 - FIX LINK TO STACK.
*            31JUL81 - FOLLOWING PROBLEM REPORTED.
*                      FIRST BYTE OF EXTENT DESCRIPTION IN F1-DSCB
*                      FOR CYLINDER ALLOCATED DATA SET IS BEING CHANGED
*                      FROM X'81' TO X'01'.
*            03AUG81 - ABOVE PROBLEM FIXED. CAUSE WAS DETERMINED TO BE
*                      CYLINDER BITS IN JFCB NOT BEING RECOGNIZED BY
*                      MODULE IGG020P1, SINCE JFCB REWRITE WAS BEING
*                      INHIBITED.  REMOVED JFCB REWRITE INHIBIT,
*                      REMOVED JFCB DISP=MOD ALTERATION, CHANGED ALL
*                      OPEN-OUTPUT TO OPEN-EXTEND.  THUS, THE ONLY
*                      JFCB ALTERATIONS ARE FOR CYLINDER ALLOCATION
*                      AND RLSE, (AND RLSE IS SET OFF AGAIN IF THERE
*                      WAS ANY UNUSED SPACE LEFT UNRELEASED).
*            03AUG81 - CHANGE LOGIC SO THAT ONLY ONE DCB IS EVER OPEN
*                      AT ANY TIME.
         SPACE
*              INTERCEPT 'LINK' MACROS IMBEDDED IN PUTLINE & STACK
*              TO MAKE SF=(E,LINKAREA) THE DEFAULT
         SPACE
         MACRO
&NAME    LINK  &EP=,&SF=(E,LINKAREA)
&NAME    LA    15,&SF(2)
         LA    0,*+8
         B     *+12
         DC    CL8'&EP'
         ST    0,0(0,15)
         SVC   6             ISSUE LINK SVC
         MEND
         SPACE
RELEASE  START
         USING *,R12
         B     @PROLOG-*(,15)
         DC    AL1(11),CL11'RELEASE'
         DC    CL16' &SYSDATE &SYSTIME '
@SIZE    DC    AL1(1),AL3(@DATAL)
@PROLOG  STM   14,12,12(13)
         LR    R12,15
         LR    R2,R1
         USING CPPL,R2
         L     R0,@SIZE
         GETMAIN R,LV=(0)
         LR    R9,R1
         USING @DATA,R9
         SPACE
         LR    R0,R1               AREA TO BE CLEARED
         L     R1,@SIZE            LENGTH TO BE CLEARED
         SLR   R14,R14             ZERO SENDING ADDRESS
         SLR   R15,R15             ZERO PAD AND LENGTH
         MVCL  R0,R14              CLEAR IT ALL
         SPACE
         ST    R13,4(,R9)          PUT OLD ADDRESS IN NEW AREA
         ST    R9,8(,R13)          PUT NEW ADDRESS IN OLD AREA
         LR    R13,R9              SET SAVEAREA POINTER
         SPACE
         ST    R2,SAVE2
         EJECT
************************************************************
*                                                          *
*        SET UP IOPL FOR PUTLINE                           *
*                                                          *
************************************************************
         SPACE
         LA    R15,MYIOPL
         USING IOPL,R15
         MVC   IOPLUPT(4),CPPLUPT
         MVC   IOPLECT(4),CPPLECT
         LA    R0,MYECB
         ST    R0,IOPLECB
         XC    MYECB,MYECB
         LA    R0,MYPTPB
         ST    R0,IOPLIOPB
         DROP  R15
         SPACE
         L     R15,16              LOAD CVT POINTER
         TM    444(R15),X'80'      IS PUTLINE LOADED? (VS2)
         BNO   PUTLOAD             NO - BRANCH TO LOAD
         L     R15,444(,R15)       YES - USE CVTPUTL
         B     PUTLODED            BRANCH AROUND LOAD
PUTLOAD  LA    R0,=CL8'IKJPUTL '
         LOAD  EPLOC=(0)
         LR    R15,R0              GET ENTRY ADDRESS
         LA    R15,0(,R15)         CLEAR HI BYTE FOR DELETE ROUTINE
PUTLODED ST    R15,MYPUTLEP        SAVE PUTLINE ENTRY ADDRESS
         SPACE
************************************************************
*                                                          *
*        SET UP PPL FOR PARSE                              *
*                                                          *
************************************************************
         SPACE
         LA    R15,MYPPL
         USING PPL,R15
         MVC   PPLUPT(4),CPPLUPT
         MVC   PPLECT(4),CPPLECT
         LA    R0,MYECB
         ST    R0,PPLECB
         XC    MYECB,MYECB
*        L     R0,=A(RELEAPCL)
         LA    R0,PCLADDR
         ST    R0,PPLPCL
         LA    R0,MYANS
         ST    R0,PPLANS
         XC    MYANS(4),MYANS
         MVC   PPLCBUF(4),CPPLCBUF
         ST    R9,PPLUWA
         DROP  R15
         SPACE 1
************************************************************
*                                                          *
*        CALL THE PARSE SERVICE ROUTINE                    *
*                                                          *
************************************************************
         SPACE 1
         LR    R1,R15              POINT TO PPL
         L     R15,16              CVTPTR
         TM    524(R15),X'80'      IF HI ORDER BIT NOT ON
         BNO   PARSELNK               THEN DO LINK, NOT CALL
         L     R15,524(,R15)       CVTPARS
         BALR  R14,R15             CALL IKJPARS
         B     PARSEEXT            SKIP AROUND LINK
PARSELNK EQU   *
         LINK  EP=IKJPARS,SF=(E,LINKAREA)
PARSEEXT EQU   *
         SPACE 1
         LTR   R15,R15
         BZ    PARSEOK
         LA    R1,MSG01
         LA    R0,L'MSG01
         BAL   R14,PUTMSG
         OI    STATUS,STATERR      ERROR
         B     EXIT
PARSEOK  EQU   *
         SPACE
         L     R3,MYANS
         USING IKJPARMD,R3
         SPACE
************************************************************
*                                                          *
*        PROCESS 'LEAVE' KEYWORD                           *
*                                                          *
************************************************************
         SPACE
         LA    R4,LEAVE
         TM    6(R4),X'80'
         BZ    NOLEAVE
         LH    R1,4(,R4)
         L     R14,0(,R4)
         BCTR  R1,0
         B     *+10
         PACK  DOUBLE(8),0(0,R14)
         EX    R1,*-6
         CVB   R1,DOUBLE
         ST    R1,LEAVV
NOLEAVE  EQU   *
         SPACE
************************************************************
*                                                          *
*        QUALIFY THE DSNAME IF NECESSARY                   *
*                                                          *
************************************************************
         SPACE
         LA    R4,DSN
STARTDSN NI    STATUS,255-STATCYL  SET OFF CYLINDER ALLOC SW
         SLR   R7,R7
         BCTR  R7,0
         TM    6(R4),X'80'         IS DATASET NAME SPECIFIED?
         BO    OKDSN               YES - BRANCH
         LA    R1,MSG05            NO - JUST MEMBER NAME
         LA    R0,L'MSG05
         BAL   R14,PUTMSG
         OI    STATUS,STATERR      ERROR
         B     NEXTDSN
OKDSN    EQU   *
         MVI   DSNAME,C' '
         MVC   DSNAME+1(45),DSNAME
         LH    R1,4(,R4)           GET LENGTH
         STH   R1,DSNAME
         L     R14,0(,R4)          GET ADDRESS OF NAME
         BCTR  R1,0
         B     *+10
         MVC   DSNAME+2(0),0(R14)
         EX    R1,*-6
         MVC   DSNSAVE(46),DSNAME  SAVE DSN AS ENTERED
         TM    6(R4),X'40'         IS IT QUOTED?
         BO    DEFX                YES - SKIP DEFAULT SERVICE
         SPACE
         LA    R15,MYIOPL
         USING IOPL,R15
         LA    R14,MYDFPB
         ST    R14,IOPLIOPB
         USING DFPB,R14
         XC    0(20,R14),0(R14)
         LA    R0,DSNAME
         ST    R0,DFPBDSN
         OI    DFPBCODE,X'04'      SEARCH CAT AND PROMPT IF MULTI
         MVC   DFPBPSCB,CPPLPSCB
         MVI   DFPBCNTL,X'20'      PREFIX THE DSNAME
         DROP  R14
         SPACE
         LA    R1,MYIOPL
         SPACE
         LR    R1,R15              POINT TO IOPL
         L     R15,16              CVTPTR
         TM    736(R15),X'80'      IF HI ORDER BIT NOT ON
         BNO   EHDEFLNK               THEN DO LINK, NOT CALL
         L     R15,736(,R15)       CVTEHDEF
         BALR  R14,R15             CALL IKJEHDEF
         B     EHDEFEXT            SKIP AROUND LINK
EHDEFLNK EQU   *
         LINK  EP=IKJEHDEF,SF=(E,LINKAREA)
EHDEFEXT EQU   *
         SPACE
         B     DEFCODE(R15)
DEFCODE  B     DEF00               SUCCESS
         B     NEXTDSN              MSG ALREADY ISSUED
         B     DEF08               INVALID NAME GT 44
         B     NEXTDSN              MSG ALREADY ISUED
         B     DEF16               NOT IN CATALOG
         B     DEF20               NOT IN CATALOG
         B     DEF24               IMPOSSIBLE
         B     DEF28               COMMAND SYSTEM ERROR
         B     DEF32               IMPOSSIBLE
         B     DEF36               ?
DEF08    EQU   *
DEF16    EQU   *
         B     DEF24
DEF20    EQU   *
LOCERR   EQU   *
         MVC   MSGWK(L'MSG02),MSG02
         LA    R15,MSGWK+L'MSG02
         LA    R14,DSNAME
         LH    R1,0(,R14)
         BCTR  R1,0
         B     *+10
         MVC   MSGWK+L'MSG02(0),2(R14)
         EX    R1,*-6
         LA    R15,1(R1,R15)
         MVC   0(L'MSG02A,R15),MSG02A
         LA    R0,L'MSG02+L'MSG02A+1(,R1)
         LA    R1,MSGWK
         BAL   R14,PUTMSG
         B     NEXTDSN
DEF24    EQU   *
DEF28    EQU   *
DEF32    EQU   *
DEF36    EQU   *
         LA    R1,MSG03
         LA    R0,L'MSG03
         BAL   R14,PUTMSG
         B     NEXTDSN
         SPACE
DEF00    EQU   *
DEFX     EQU   *
         SPACE
************************************************************
*                                                          *
*        ALLOCATE THE DATASET                              *
*                                                          *
************************************************************
         SPACE
         LA    R1,MYDAPL
         USING DAPL,R1
         MVC   DAPLUPT(4),CPPLUPT
         MVC   DAPLECT(4),CPPLECT
         LA    R0,MYECB
         ST    R0,DAPLECB
         MVC   DAPLPSCB(4),CPPLPSCB
         LA    R15,MYDAPB
         ST    R15,DAPLDAPB
         DROP  R1
         USING DAPB08,R15
         XC    0(84,R15),0(R15)
         MVI   DA08CD+1,X'08'
         LA    R0,DSNAME
         ST    R0,DA08PDSN
         MVC   DA08DDN(8),=CL8' '
         MVC   DA08UNIT,=CL8' '
         MVC   DA08SER,=CL8' '
         MVC   DA08MNM,=CL8' '
         MVC   DA08PSWD,=CL8' '
         MVI   DA08DSP1,DA08OLD
*        MVI   DA08DSP1,DA08MOD                               .02AUG81.
         MVI   DA08DPS2,DA08KEEP
         MVI   DA08DPS3,DA08KEP
         TM    14(R4),X'80'        MEMBER SPECIFIED?
         BZ    MEMBX               NO - BRANCH
         LA    R1,MSG05
         LA    R0,L'MSG05
         BAL   R14,PUTMSG
         B     NEXTDSN
MEMBX    EQU   *
         TM    22(R4),X'80'        PASSWORD SPECIFIED?
         BZ    PASSX               NO - BRANCH
         LH    R1,20(,R4)          GET LENGTH OF PSWD
         BCTR  R1,0                MINUS 1 FOR EX
         L     R14,16(,R4)         GET ADDRESS OF PSWD
         B     *+10
         MVC   DA08PSWD(0),0(R14)  MOVE PSWD
         EX    R1,*-6
PASSX    EQU   *
         LA    R1,MYDAPL
         SPACE
         BAL   R14,CALLDAIR
         LTR   R15,R15
         BZ    OKDAIR
         BAL   R14,DAIRFAIL
         OI    STATUS,STATERR      ERROR
         B     NEXTDSN
OKDAIR   EQU   *
         OI    CLEANUP,CLEANDAR    TELL CLEANUP TO FREE IT
         LA    R15,MYDAPB
         MVC   DDSAVE,DA08DDN
         TM    DA08DSO,X'42'       IS DSORG PS OR PO
         BNZ   OKDSORG             YES - BRANCH
ERRDSORG LA    R1,MSG06            MUST BE PS OR PO
         LA    R0,L'MSG06
         BAL   R14,PUTMSG
         OI    STATUS,STATERR      ERROR
         B     NEXTDSN
OKDSORG  EQU   *
         DROP  R15
         SPACE
         DEVTYPE DDSAVE,DEVAREA,DEVTAB
         SPACE
         CLI   DEVAREA+2,X'20'     DIRECT ACCESS DEVICE
         BE    OKDA                YES, BRANCH
         LA    R1,MSG09
         LA    R0,L'MSG09
         BAL   R14,PUTMSG
         OI    STATUS,STATERR      ERROR
         B     NEXTDSN
OKDA     EQU   *
         SPACE
************************************************************
*                                                          *
*        CHECK FORMAT-1 DSCB FOR CYLINDER ALLOCATION       *
*                                                          *
************************************************************
         SPACE
         L     R1,16               CVTPTR
         L     R1,0(,R1)           TCB WORDS
         L     R1,4(,R1)           CURRENT TCB
         L     R1,12(,R1)          TIOT
         LA    R1,24(,R1)          TOIENTRY
DDLOOP   CLI   0(R1),0             END OF TIOT
         BE    ERROBT              YES, BRANCH (NEVER HAPPENS)
         CLC   4(8,R1),DDSAVE      DOES DDNAME MATCH
         BE    DDFOUND
         SLR   R15,R15
         IC    R15,0(,R1)
         LA    R1,0(R15,R1)
         B     DDLOOP
DDFOUND  L     R15,16(,R1)         TIOEFSRT-1
         TM    18(R15),X'20'       DIRECT ACCESS DEVICE?
         BZ    ERROBT              NO, BYPASS OBTAIN
         MVC   VOLSER,28(R15)      UCBVOLI
OBTDSCB  LA    R1,OBTAINW
         MVC   0(OBTAINL,R1),OBTAIN
         LA    R0,DSNAME+2         DSN FOR OBTAIN
         ST    R0,4(,R1)
         LA    R0,VOLSER           VOLUME FOR OBTAIN
         ST    R0,8(,R1)
         LA    R0,MYDSCB           ANSWER AREA FOR OBTAIN
         ST    R0,12(,R1)
         OBTAIN (1)
         LTR   R15,R15             WAS OBTAIN SUCCESSFUL
         BZ    OKDSCB              YES, BRANCH
         SPACE
*               OBTAIN HAS FAILED. HOW CAN THAT HAPPEN WHEN
*               DYNAMIC ALLOCATION WAS SUCCESSFUL? ONE WAY IT
*               CAN HAPPEN IS IF THE DSNAME IS AN ALIAS ENTRY
*               IN A VSAM CATALOG.  IF IT IS, A 'LOCATE' WILL
*               PUT THE TRUE NAME IN THE DSNAME FIELD, SO NOW
*               WE ISSUE A LOCATE, AND TRY THE OBTAIN AGAIN.
         SPACE
         TM    STATUS,STATLOC      HAS LOCATE BEEN TRIED ALREADY?
         BZ    ALIAS               NO, GO TRY IT
ERROBT   LA    R1,MSG10            UNABLE TO OBTAIN DSCB
         LA    R0,L'MSG10
         BAL   R14,PUTMSG
         OI    STATUS,STATERR      ERROR
         B     NEXTDSN
ALIAS    OI    STATUS,STATLOC      TRIP THE SWITCH
         LA    R1,LOCATEW
         MVC   0(LOCATEL,R1),LOCATE
         LA    R0,DSNAME+2         DSNAME FOR LOCATE
         ST    R0,4(,R1)
         LA    R0,LOCBUF           ANSWER AREA FOR LOCATE
         ST    R0,12(,R1)
         LOCATE (1)
         LTR   15,15               WAS LOCATE SUCCESSFUL?
         BZ    OBTDSCB             YES, GO OBTAIN AGAIN
         B     ERROBT              NO, ISSUE MESSAGE
         SPACE
OKDSCB   NI    STATUS,255-STATLOC  TURN OFF LOCATE SWITCH
         LA    R1,MYDSCB-44
         TM    X'5E'(R1),X'C0'     CYLINDER ALLOCATION?
         BO    CYLSTAT             YES, BRANCH
         TM    X'5E'(R1),X'41'     AVG AND ROUND ALLOCATION
         BO    CYLSTAT             YES, BRANCH
         B     *+8
CYLSTAT  OI    STATUS,STATCYL      YES, SET CYLINDER SWITCH
         TM    X'52'(R1),X'42'     DSORG=PS OR PO
         BZ    ERRDSORG            NEITHER, BRANCH
         CLI   X'54'(R1),0         IS THERE A RECFM
         BNE   OKRECFM             YES, BRANCH
         LA    R1,MSG11
         LA    R0,L'MSG11
         BAL   R14,PUTMSG
         OI    STATUS,STATERR      ERROR
         B     NEXTDSN
OKRECFM  EQU   *
         SPACE
************************************************************
*                                                          *
*        SET UP THE DCB                                    *
*                                                          *
************************************************************
         SPACE
         LA    R5,MODDCB
         MVC   0(CONDCBL,R5),CONDCB
         USING IHADCB,R5
         MVC   DCBDDNAM(8),DDSAVE
         SPACE
         LA    R15,DYNEXLST
         IC    R0,DCBEXLSA-1
         ST    R15,DCBEXLSA-1
         STC   R0,DCBEXLSA-1
         LA    R1,JFCB
         ST    R1,0(,R15)
         MVI   0(R15),X'87'
         LA    R6,RLSDCB
         MVC   0(CONDCBL,R6),0(R5)
         SPACE
         MVI   OPEN,X'80'
         SPACE
         RDJFCB ((R5)),MF=(E,OPEN)
         SPACE
*        OI    JFCB+X'34',X'08'    DO NOT REWRITE JFCB          DELETED
*        NI    JFCB+X'57',X'3F'    ZERO 1ST 2 BITS (OLD=X'40')  DELETED
*        OI    JFCB+X'57',X'80'    DISP=MOD            =X'80'   DELETED
         TM    STATUS,STATCYL      CYLINDER ALLOCATION?
         BZ    *+8                 NO, SKIP NEXT INSTRUCTION
         OI    JFCB+X'9B',X'C0'    YES, MARK JFCBCTRI CYL
         SPACE
         MVI   OPEN,X'80'
         SPACE
         OPEN  ((R5),EXTEND),TYPE=J,MF=(E,OPEN)
         SPACE
         TM    DCBOFLGS,X'10'
         BO    OKOPEN
         LA    R1,MSG04
         LA    R0,L'MSG04
         BAL   R14,PUTMSG
         OI    STATUS,STATERR      ERROR
         B     NEXTDSN
         SPACE
OKOPEN   EQU   *
         MVC   HOLDEOF,DCBFDAD     SAVE MBBCCHHR OF EOF
         OI    CLEANUP,CLEANOP5    TELL CLEANUP TO CLOSE IT
         SPACE
         L     R1,DCBDEBAD         POINT TO DEB
         SLR   R14,R14
         SLR   R15,R15
         SLR   R0,R0
         IC    R0,16(,R1)          GET NUMBER OF EXTENTS
         LTR   R0,R0               ZERO EXTENTS?
         BZ    RLSNONE             YES, BRANCH
         IC    R15,04(,R1)         GET LENGTH OF EXTENT FIELD
LOOPDEB  AH    R14,46(,R1)         ADD TRACKS TO COUNTER
         AR    R1,R15              POINT TO NEXT EXTENT
         BCT   R0,LOOPDEB
         BCTR  R14,0               TRKS-1 = HIGH TRACK NUMBER
         LR    R8,R14              SAVE HIGH TRACK ALLOCATED
         SPACE
         L     R1,DCBDEBAD
         LA    R2,DCBFDAD
         ST    R3,12(,R13)
         STM   R9,R13,16(R13)
         LR    R3,R13
         L     R15,16              CVTPTR
         L     R15,32(,R15)        CVTPRLTV
         BALR  R14,R15
         LR    R13,R3              RESTORE R13
         LM    R9,R13,16(R13)
         L     R3,12(,R13)
         SPACE
         SRL   R0,16               TTRZ TO TT (HIGH TRACK USED)
         LR    R1,R8               GET HIGH TRACK ALLOCATED
         SR    R1,R0               MINUS HIGH TRACK USED
         BNP   RLSNONE             BRANCH IF NOTHING TO RELEASE
         SPACE
         LR    R7,R1               SAVE UNUSED TRACKS
         SPACE
*              IF DATA SET WAS ORIGINALLY ALLOCATED IN CYLINDERS,
*              THE FOLLOWING ROUTINE INSURES THAT THE NUMBER OF
*              TRACKS REMAINING WILL BE AN EVEN MULTIPLE OF THE
*              NUMBER OF TRACKS PER CYLINDER FOR THE DEVICE.
*              R7 WILL BE CHANGED TO INCLUDE ONLY THOSE UNUSED
*              TRACKS THAT ARE WITHIN UNUSED CYLINDERS.
         SPACE
         TM    STATUS,STATCYL      ALLOCATED BY CYLINDER?
         BZ    NOTCYL              NO, BRANCH
         CLI   LEAVEKW+1,3         'EXTENTS' SPECIFIED
         BE    NOTCYL              YES, EXISTING EXTENTS ASSUMED OK
*        LR    R1,R8               GET HIGH TRACK ALLOCATED
*        SLR   R0,R0
         SRDL  R0,32
         LH    R15,TRKCYL          GET TRACKS PER CYLINDER
         DR    R0,R15              GET TRACK WITHIN LAST CYL
         BCTR  R15,0               GET NO OF LAST TRK
         CLR   R15,R0              IS LAST TRK = HIGH TRACK
         BNE   ADJUST              NO, ADJUSTMENT NECESSARY
         L     R0,LEAVV
         LTR   R0,R0               IS LEAVE SPECIFIED
         BZ    RLSALL              NO, TAKE FAST PATH
         B     ADJLEAV             YES, ADJUST IT
ADJUST   MH    R1,TRKCYL           CHANGE CYL TO TRK
         AR    R15,R1              SET TO LAST TRACK
         LR    R1,R8               GET HIGH TRACK ALLOCATED
         SR    R1,R15              MINUS LAST TRACK OF LAST CYL USED
         BNP   RLSNONE             BRANCH IF NOTHING TO RELEASE
         LR    R0,R7               SAVE OLD UNUSED TRACKS
         LR    R7,R1               NO OF TRACKS TO RELEASE
         SR    R0,R1               GET DIFF BETWEEN OLD & NEW
         LR    R1,R0               DIFF IN R1
*
*              NOW WE HAVE AN IMPLICIT LEAVE(N) WHERE N IS IN R1
*              AND IS THE NUMBER OF TRACKS FROM THE LAST TRACK USED
*              TO THE END OF THE CYLINDER.  IF LEAVE WAS EXPLICITLY
*              SPECIFIED, WE CAN REDUCE THE SPECIFIED NUMBER BY THE
*              IMPLICIT NUMBER BECAUSE IF THE USER SPECIFIED LEAVE(8)
*              AND THE IMPLICIT NUMBER WAS 7, THAT MEANS THAT NORMAL
*              CYLINDER RELEASE WILL LEAVE THE USER 7 UNUSED TRACKS
*              AND OUR INTERNAL PROCESSING ONLY HAS TO WORK ON GETTING
*              THE ONE OTHER TRACK THE USER WANTS. THE USER WILL END
*              UP WITH MORE THAN 8 BECAUSE THE ONE OTHER TRACK MEANS
*              THE WHOLE CYLINDER CONTAINING THAT TRACK WILL BE LEFT.
*              AFTER THE SPECIFIED NUMBER IS REDUCED BY THE IMPLICIT
*              NUMBER, IF THE RESULT IS POSITIVE WE ROUND IT UP TO THE
*              NEXT HIGHER MULTIPLE OF TRACKS PER CYLINDER.
*              IF THE USER SPECIFIED LEAVE(7) AND THE IMPLICIT NUMBER
*              WAS 7 (OR MORE), OUR JOB IS SIMPLE BECAUSE A NORMAL
*              CYLINDER RELEASE WILL LEAVE ENOUGH UNUSED TRACKS.
*
         L     R0,LEAVV
         SR    R0,R1               REDUCE SPECIFIED NUMBER BY R1
         ST    R0,LEAVV
         BNP   RLSPART             IF RESULT LT 1, RELEASE R7 TRACKS.
ADJLEAV  SRDL  R0,32
         BCTR  R1,0
         LH    R15,TRKCYL
         DR    R0,R15
         MH    R1,TRKCYL
         AR    R1,R15              PLUS 1 CYL
         SR    R7,R1               REDUCE NUMBER OF RELEASABLE TRACKS
         BP    RLSPART             GO RELEASE THEM
         B     RLSNONE             UNLESS THAT LEAVES NOTHING
         SPACE
*
*              PROCESSING FOR NON-CYLINDER ALLOCATIONS,
*              (OR CYLINDER ALLOCATIONS IF 'EXTENTS' SPECIFIED).
*
*              R7 CONTAINS # OF TRACKS RELEASABLE.
*              IT CAN BE REDUCED BY THE NUMBER OF TRACKS SPECIFIED
*              IN THE  LEAVE(NN)  KEYWORD.
*
NOTCYL   EQU   *
         L     R15,LEAVV
         LTR   R15,R15             TO LEAVE SOME UNUSED TRACKS?
         BZ    LEAVEX              NO, BRANCH
         SR    R7,R15              REDUCE RELEASABLE SPACE
         BP    RLSPART             BRANCH IF RELEASABLE SPACE
         B     RLSNONE             NO RELEASABLE SPACE
         SPACE
LEAVEX   EQU   *
         CLI   LEAVEKW+1,3         'EXTENTS' SPECIFIED?
         BNE   RLSALL              NO, GO RELEASE ALL UNUSED SPACE
         LR    R2,R0               SAVE HIGH TRACK USED
         SPACE
         L     R1,DCBDEBAD         POINT TO DEB
         SLR   R14,R14
         SLR   R15,R15
         SLR   R0,R0
         IC    R0,16(,R1)          GET NUMBER OF EXTENTS
         IC    R15,04(,R1)         GET LENGTH OF EXTENT FIELD
EXTLOOP  AH    R14,46(,R1)         ADD TRACKS TO COUNTER
         CR    R14,R2              TRACKS .GT. HIGH TRACK USED?
         BH    EXTSTOP             YES, KEEP THRU THIS EXTENT
         AR    R1,R15              POINT TO NEXT EXTENT
         BCT   R0,EXTLOOP          BRANCH FOR EACH EXTENT
         B     RLSNONE             KEEP ALL EXTENTS
EXTSTOP  BCTR  R0,0                SUBTRACT 1 FROM EXTENT
         LTR   R0,R0               WAS IT LAST EXTENT?
         BNP   RLSNONE             YES, KEEP ALL EXTENTS
         BCTR  R14,0               HIGH TRACK IN THIS EXTENT
         LR    R7,R8               HIGH TRACK ALLOC
         SR    R7,R14              GET NO TRACKS IN REMAIN EXTENTS
         BNP   RLSNONE
         B     RLSPART
         SPACE
*
*              RELEASE THE NUMBER OF TRACKS SPECIFIED IN R7
*
         SPACE
OPEN6    MVI   CLOSE,X'80'
         CLOSE ((R5)),MF=(E,CLOSE)
         NI    CLEANUP,255-CLEANOP5
         SPACE
         OI    JFCB+X'56',X'C0'    RLSE
         MVI   OPEN,X'80'
         OPEN  ((R6),EXTEND),TYPE=J,MF=(E,OPEN)
         BR    R2
         SPACE
RLSPART  BAL   R2,OPEN6
         LR    R0,R8               GET HIGH TRACK ALLOCATED
         SR    R0,R7               MINUS RELEASED TRACKS
         SLL   R0,16               TT00 OF LAST TRACK TO BE KEPT
         LA    R1,X'100'           RECORD 1
         OR    R0,R1               CHANGE TT00 TO TTR0  (R=1)
         SPACE
*              PUT FAKE CCHHR ADDRESS IN R6 DCB.
*              CONVERT TTR IN R0 TO CCHHR IN DCBFDAD
         L     R1,DCBDEBAD-IHADCB(,R6)
         LA    R2,DCBFDAD-IHADCB(,R6)
         ST    R3,12(,R13)
         STM   R9,R13,16(R13)
         LR    R3,R13
         L     R15,16
         L     R15,28(,R15)        CVTPCNVT  TTR TO CCHHR
         BALR  R14,R15
         LR    R13,R3
         LM    R9,R13,16(R13)
         L     R3,12(,R13)
         SPACE
         MVI   CLOSE,X'80'
         CLOSE ((R6)),MF=(E,CLOSE)
*
*              NOW RESTORE THE REAL END OF FILE
*
         SPACE
RESTREOF EQU   *
         NI    JFCB+X'56',255-X'C0'   NO RLSE
         SPACE
         MVI   OPEN,X'80'
         OPEN  ((R6),EXTEND),TYPE=J,MF=(E,OPEN)
         SPACE
         MVC   DCBFDAD-IHADCB(8,R6),HOLDEOF
         SPACE
         MVI   CLOSE,X'80'
         CLOSE ((R6)),MF=(E,CLOSE)
         B     NEXTDSN
         SPACE
*
*              RELEASE ALL UNUSED SPACE
*
         SPACE
RLSALL   BAL   R2,OPEN6
         MVI   CLOSE,X'80'
         CLOSE ((R6)),MF=(E,CLOSE)
         B     NEXTDSN
         SPACE
*
*              RELEASE NOTHING
*
         SPACE
RLSNONE  EQU   *
         SLR   R7,R7
         SPACE
*
*              CLEANUP AND TERMINATE
*
         SPACE
NEXTDSN  EQU   *
         L     R2,SAVE2
         TM    CLEANUP,CLEANOP5
         BZ    NOCLOSE
         MVI   CLOSE,X'80'
         CLOSE ((R5)),MF=(E,CLOSE)
         NI    CLEANUP,255-CLEANOP5
NOCLOSE  TM    CLEANUP,CLEANDAR    IS DATA SET ALLOCATED
         BZ    NOFREE              NO, BYPASS UNALLOCATE
         LA    R1,MYDAPL
         LA    R15,MYDAPB
         USING DAPB18,R15
         XC    0(40,R15),0(R15)
         MVI   DA18CD+1,X'18'
         MVC   DA18DDN,DDSAVE
         MVC   DA18MNM(8),=CL8' '
         MVC   DA18SCLS(2),=CL8' '
         BAL   R14,CALLDAIR        UNALLOCATE
         NI    CLEANUP,255-CLEANDAR FREED
         SPACE
NOFREE   EQU   *
         SPACE
         LTR   R7,R7               WAS RELEASE LOGIC ENTERED
         BM    NODIS               NO, BYPASS DISPLAY
         LA    R1,MSGWK
         MVI   0(R1),C' '
         MVC   1(L'MSGWK-1,R1),0(R1)
         MVC   0(6,R1),=X'402020202120'
         CVD   R7,DOUBLE
         ED    0(6,R1),DOUBLE+5
         MVC   7(6,R1),=C'TRACKS'
         LA    R15,13(R1)
         CL    R7,=F'1'            ONE TRACK
         BNE   *+6                 NO, SKIP NEXT INSTR
         BCTR  R15,0               CHANGE TRACKS TO TRACK
         MVC   0(24,R15),=C' RELEASED FROM DATA SET '
         MVC   24(44,R15),DSNSAVE+2
         LA    R0,24+44(,R15)
         SR    R0,R1
         BAL   R14,PUTMSG
NODIS    EQU   *
         SPACE
         L     R4,24(,R4)          POINT TO NEXT DSN PDE
         LA    R4,0(,R4)           CLEAR HIGH ORDER BYTE
         LTR   R4,R4               IS THERE ANOTHER
         BNZ   STARTDSN            YES, GO PROCESS NEW DSNAME
         IKJRLSA MYANS
         LH    R15,RC
         B     EXIT
         SPACE
************************************************************
*                                                          *
*         CALL IKJDAIR SERVICE ROUTINE                     *
*                                                          *
************************************************************
         SPACE
CALLDAIR ST    R14,DAIRREGS
         L     R15,16
         TM    732(R15),X'80'     CVTDAIR
         BNO   DAIRLINK
         L     R15,732(,R15)
         BALR  R14,R15
         B     DAIRFINI
DAIRLINK EQU   *
         LINK  EP=IKJDAIR,SF=(E,LINKAREA)
DAIRFINI L     R14,DAIRREGS
         BR    R14
         SPACE
************************************************************
*                                                          *
*        DYNAMIC ALLOCATION FAILURE ROUTINE                *
*                                                          *
************************************************************
         SPACE
DAIRFAIL ST    R14,MYDFREGS
         LA    R1,MYDFPARM
         USING DFDSECTD,R1
         ST    R15,MYDFRC
         LA    R15,MYDFRC
         ST    R15,DFRCP
         LA    R15,MYDAPL
         ST    R15,DFDAPLP
         SLR   R15,R15
         ST    R15,MYJEFF02
         LA    R15,MYJEFF02
         ST    R15,DFJEFF02
         LA    R15,DFDAIR
         STH   R15,MYDFID
         LA    R15,MYDFID
         ST    R15,DFIDP
         SLR   R15,R15
         ST    R15,DFCPPLP
         LINK  EP=IKJEFF18,SF=(E,LINKAREA)
         L     R15,MYDFRC
         DROP  R1
         L     R14,MYDFREGS
         BR    R14
         SPACE
************************************************************
*                                                          *
*        PUTMSG ROUTINE                                    *
*                                                          *