*--------------------------------------------------------------------*
*                                                                    *
*        DYNAMIC ALLOCATION MODULE (DITTDAIR) INTERFACE BLOCK        *
*                                                                    *
*--------------------------------------------------------------------*
         MACRO
&NAME    DAIRBLOK &TYPE=
         AIF      ('&TYPE' EQ 'DSECT').DSECT
&NAME    DS       0C
         AGO      .NODSECT
.DSECT   ANOP
         AIF      (T'&NAME EQ 'O').NONAME
&NAME    DSECT
.NODSECT ANOP
DAIRCMMD DC    X'00'               COMMAND
$DAIRACQ EQU   C'A'                .. ALLOCATE
$DAIRREL EQU   C'R'                .. RELEASE
$DAIRLOC EQU   C'L'                .. LOCATE DYNAMIC BLOCK
DAIRTYPE DC    X'00'               TYPE OF RESOURCE
$DAIRCUU EQU   X'80'               .. RESOURCE IS A DEVICE
DAIRSTAT DC    X'00'               STATUS RETURNED FROM DITTDAIR
$DAIRSOK EQU   C' '                .. GOOD STATUS
$DAIRSDE EQU   C'1'                .. DAIR ERROR
$DAIRSLE EQU   C'2'                .. LOCATE ERROR
$DAIRSIR EQU   C'3'                .. INVALID REQUEST
$DAIRSNU EQU   C'4'                .. UNIT DOES NOT EXIST
$DAIRSTE EQU   C'5'                .. DEVICE TYPE IS NOT SUPPORTED
$DAIRSRE EQU   C'6'                .. INVALID RESOURCE TYPE
$DAIRSDP EQU   C'7'                .. 2ND ALLOCATE FOR SAME DEVICE
$DAIRSOF EQU   C'8'                .. DEVICE IS OFFLINE
$DAIRSAL EQU   C'9'                .. DEVICE ALLOCATED TO ANOTHER USER
$DAIRSUD EQU   C'A'                .. 3420 WITH NEITHER 1600 OR 6250
$DAIRS16 EQU   C'B'                .. DRIVE DOES NOT ALLOW 1600
$DAIRS62 EQU   C'C'                .. DRIVE DOES NOT ALLOW 6250
$DAIRSD1 EQU   C'D'                .. DENSITY NOT ALLOWED ON 3480'S
$DAIRSD2 EQU   C'E'                .. DENSITY NOT ALLOWED ON DASD'S
DAIRCUU  DC    XL2'0000'           CUU OF DEVICE TO ALLOCATE/RELEASE
DAIRAREA DC    AL4(0)              ADDRESS OF DYNAMICALLY ACQUIRED     +
                                      DCB/IOB/ECB/CCW AREA
DAIRERR  DC    X'0000'             SVC99 ERROR CODE
DAIRINFO DC    X'0000'             SVC99 INFO CODE
DAIRR15  DC    XL4'00'             SVC99 RETURN CODE (REG 15)
         MEXIT
.NONAME  ANOP
         MNOTE    12,'NAME REQUIRED WHEN TYPE=DSECT'
         MEND
