.* ------------------------------------------------------------------*
.*                                                                   *
.*                        TRACE MACRO                                *
.*                                                                   *
.*       THE TRACE FUNCTION ALWAYS CAPTURES THE CSECT NAME (TAKEN    *
.*       FROM THE MODULE PREFIX DATA) AND A TRACE ID (SPECIFIED ON   *
.*       THIS MACRO OR "**NOID**" IF THE ID PARAMETER IS OMITTED.    *
.*                                                                   *
.*       ONE OR TWO DATA ELEMENTS (8 BYTES EACH) MAY BE CAPTURED AT  *
.*       ANY TRACE POINT.  THE DATA TO BE CAPTURED MAY BE SPECIFIED  *
.*       IN EITHER OF TWO WAYS: DATA1 OR RDATA1 AND DATA2 OR RDATA2. *
.*       DATA1 AND RDATA1 ARE MUTUALLY EXCLUSIVE AS ARE DATA2 AND    *
.*       RDATA2.  DATA1 AND DATA2 SPECIFY THE ADDRESS OF DATA TO BE  *
.*       CAPTURED, RDATA1 AND RDATA2 SPECIFY A REGISTER WHOSE        *
.*       CONTENTS ARE TO BE CAPTURED.                                *
.*                                                                   *
.*       FOR EXAMPLE:                                                *
.*                                                                   *
.*                 DITTRACE ID=POINTA,DATA1=VALUE1,RDATA2=R4         *
.*                                                                   *
.*          IN THIS CASE THE TRACE ENTRY WOULD INCLUDE THE CSECT     *
.*          NAME, THE ID DATA "POINTA", 8 BYTES OF DATA BEGINNING    *
.*          AT VALUE1'S ADDRESS AND THE CONTENTS OF REGISTER 4.      *
.*                                                                   *
.*       NOTE: REGISTER 14 IS THE ONLY REGISTER ALTERED BY THE       *
.*             EXECUTION OF A TRACE MACRO, ALL OTHER REGISTERS MAY   *
.*             BE TRACED WITHOUT LOSING THEIR CONTENTS.              *
.*                                                                   *
.* ------------------------------------------------------------------*
         MACRO
&NAME    DITTRACE &ID=,&DATA1=,&DATA2=,&RDATA1=,&RDATA2=
         AIF   (T'&DATA1 NE 'O' AND T'&RDATA1 NE 'O').ERR0010
         AIF   (T'&DATA2 NE 'O' AND T'&RDATA2 NE 'O').ERR0020
         AIF   ('&SYSPARM' EQ 'NOTRACE').MEXIT
         AIF   (T'&DATA1 EQ 'O').DATA020
         AIF   ('&DATA1'(1,1) EQ '(').DATA010
         LA    R14,&DATA1         DATA ADDRESS
         MVC   COMMTRD1,0(R14)    MOVE DATA
         AGO   .DATA030
.DATA010 ANOP
         MVC   COMMTRD1,0.&DATA1  MOVE DATA
         AGO   .DATA030
.DATA020 ANOP
         AIF   (T'&RDATA1 EQ 'O').DATA030
         STCM  &RDATA1,15,COMMTRD1
.DATA030 ANOP
         AIF   (T'&DATA2 EQ 'O').DATA050
         AIF   ('&DATA2'(1,1) EQ '(').DATA040
         LA    R14,&DATA2         DATA ADDRESS
         MVC   COMMTRD2,0(R14)    MOVE DATA
         AGO   .DATA060
.DATA040 ANOP
         MVC   COMMTRD2,0.&DATA2  MOVE DATA
         AGO   .DATA060
.DATA050 ANOP
         AIF   (T'&RDATA2 EQ 'O').DATA060
         STCM  &RDATA2,15,COMMTRD2
.DATA060 ANOP
         BAL   R14,COMMTR00       ENTER TRACE ROUTINE
         AIF      (T'&ID EQ 'O').NOID
&NAME    DC    CL8'&ID'           TRACE ID
         AGO   .ID
.NOID    ANOP
&NAME    DC    CL8'**NOID**'
.ID      ANOP
         MEXIT
.ERR0010 ANOP
         MNOTE 12,'DATA1 AND RDATA1 ARE MUTUALLY EXCLUSIVE'
         MEXIT
.ERR0020 ANOP
         MNOTE 12,'DATA2 AND RDATA2 ARE MUTUALLY EXCLUSIVE'
.MEXIT   ANOP
         MEXIT
         MEND
