*--------------------------------------------------------------------*
*                                                                    *
*        DYNAMICALLY ACQUIRED RESOURCE BLOCK                         *
*                                                                    *
*      THIS MACRO WILL GENERATE A DSECT TO MAP THE AREA ACQUIRED     *
*      TO REPRESENT A DEVICE.  THIS AREA WILL CONTAIN STORAGE FOR    *
*      AN INITIALIZED AND "OPENED" DCB, AN IOB, AN ECB, 8 CCW'S, AND *
*      CONTROL INFORMATION.                                          *
*                                                                    *
*--------------------------------------------------------------------*
         MACRO
&NAME    DYNBLOK  &TYPE=
         AIF      ('&TYPE' EQ 'DSECT').DSECT
         AIF      ('&TYPE' EQ 'SHORT').DSECT
&NAME    DS       0C
         AGO      .NODSECT
.DSECT   ANOP
         AIF      (T'&NAME EQ 'O').NONAME
&NAME    DSECT
.NODSECT ANOP
DYNNEXT  DC    A(0)                ADDRESS OF NEXT BLOCK IN CHAIN
DYNPREV  DC    A(0)                ADDRESS OF PREVIOUS BLOCK IN CHAIN
DYNEYE   DC    CL8'DYNBLOK'        EYECATCHER
DYNSTAT  DC    X'00'               STATUS FLAGS
$DYNPEOT EQU   X'80'               .. TAPE IS AT PEOT
$DYNTM   EQU   X'40'               .. TAPE MARK READ
$DYNEOF  EQU   X'20'               .. DASD EOF RECORD READ
$DYNPROT EQU   X'10'               .. TAPE IS FILE-PROTECTED
DYNCUU   DC    XL2'0000'           CUU OF DEVICE
DYNVOL   DC    CL6' '              DASD VOLSER
DYNDDNAM DC    CL8' '              DD NAME
DYNECB   DC    F'0'                AREA FOR ECB
DYNDEBA  DC    A(0)                DEB ADDRESS
         AIF   ('&TYPE' EQ 'SHORT').MEXIT
DYNDCB   DC    (DYNDCBL)X'00'      AREA FOR DCB
DYNIOB   DC    (IOBLEN)X'00'       AREA FOR IOB
DYNCCW   DS    0D
DYNCCW1  DS    XL8                 CCW #1
DYNCCW2  DS    XL8                 CCW #2
DYNCCW3  DS    XL8                 CCW #3
DYNCCW4  DS    XL8                 CCW #4
DYNCCW5  DS    XL8                 CCW #5
DYNCCW6  DS    XL8                 CCW #6
DYNCCW7  DS    XL8                 CCW #7
DYNCCW8  DS    XL8                 CCW #8
DYNHDADR DS    0XL4                MAX DISK ADDRESS
DYNHCYL  DC    XL2'0'              .. HIGH CYLINDER NUMBER
DYNHHEAD DC    XL2'0'              .. HIGH HEAD NUMBER
DYNBLOKL EQU   *-DYNNEXT           LENGTH OF DYNAMIC BLOCK
.MEXIT   ANOP
         MEXIT
.NONAME  ANOP
         MNOTE    12,'NAME REQUIRED WHEN TYPE=DSECT'
         MEND
