*--------------------------------------------------------------------*
*                                                                    *
*        'DITTEXCP' INTERFACE BLOCK                                  *
*                                                                    *
*--------------------------------------------------------------------*
         MACRO
&NAME    EXCPBLOK &TYPE=
         AIF      ('&TYPE' EQ 'DSECT').DSECT
&NAME    DS       0A
         AGO      .NODSECT
.DSECT   ANOP
         AIF      (T'&NAME EQ 'O').NONAME
&NAME    DSECT
.NODSECT ANOP
EXCPDYN  DC    A(0)                DYNAMIC BLOCK ADDRESS
EXCPLEN  DC    AL2(0)              LENGTH ACTUALLY USED BY THE I/O
EXCPSTAT DC    X'00'               EXCP MODULE STATUS
$EXCPOK  EQU   X'00'               .. ALL OK
$EXCPRNF EQU   C'1'                .. RECORD NOT FOUND
$EXCPIOE EQU   C'X'                .. I/O ERROR
$EXCPNA  EQU   C'Z'                .. COMMAND NOT ALLOWED AT PEOT
         MEXIT
.NONAME  ANOP
         MNOTE    12,'NAME REQUIRED WHEN TYPE=DSECT'
         MEND
