*--------------------------------------------------------------------*
*                                                                    *
*        DITTO USES AN 'ID' INTERNALLY FOR IDENTIFYING FIELDS.  THE  *
*        FIELD ID'S ARE SEQUENTIALLY ASSIGNED NUMBERS, THE FIRST     *
*        FIELD DEFINED IN THE PARMGEN MACRO WILL BE FIELD '01',      *
*        THE SECOND WILL BE '02', AND SO ON.  IF PARAMETERS ARE      *
*        ADDED TO THE PARMGEN MACRO OR IF THE PARAMETERS WERE TO     *
*        TO BE RE-ARRANGED, ANY REFERENCES TO THE FIELD ID'S WOULD   *
*        HAVE TO BE CHANGED ACCORDINGLY.  THIS MACRO WILL SEARCH     *
*        THE ASSEMBLER GLOBAL VARIABLE 'FLDN' AND DETERMINE THE      *
*        FIELD ID.                                                   *
*                                                                    *
*        OUTPUT FROM THE MACRO IS A 'DC' INSTRUCTION:                *
*              DC      X'..'                                         *
*                                                                    *
*--------------------------------------------------------------------*
         MACRO
&NAME    PARMID &PRMNAME
         AIF   (T'&PRMNAME EQ 'O').LBL0100
         LCLA  &FLDSUB
         GBLA  &NBRPRMS
         GBLC  &FLDN(50),&FLDID(50)
&FLDSUB  SETA  1
.LBL0010 ANOP
         AIF   ('&PRMNAME' EQ '&FLDN(&FLDSUB)').LBL0020
&FLDSUB  SETA  &FLDSUB+1
         AIF   (&FLDSUB LE &NBRPRMS).LBL0010
         MNOTE 12,'PARAMETER - &PRMNAME - IS NOT DEFINED'
         MEXIT
.LBL0020 ANOP
&NAME    DC    X'&FLDID(&FLDSUB)' FIELD ID
         MEXIT
.LBL0100 ANOP
         MNOTE 12,'NO PARAMETER NAME SPECIFIED'
.EXIT    ANOP
         MEND
