*--------------------------------------------------------------------*
*                                                                    *
*        'DITTPARM INTERFACE BLOCK                                   *
*                                                                    *
*--------------------------------------------------------------------*
         MACRO
&NAME    PARMBLOK &TYPE=
         AIF      ('&TYPE' EQ 'DSECT').DSECT
&NAME    DS       0A
         AGO      .NODSECT
.DSECT   ANOP
         AIF      (T'&NAME EQ 'O').NONAME
&NAME    DSECT
.NODSECT ANOP
PARMWTO  DC    A(0)                ADDRESS OF WTO FOR 'DITTPARM'
PARMMSGA DC    A(0)                MESSAGE ADDRESS
PARMOPV  DC    A(0)                VALID VALUES FOR OPTIONAL PARMS
PARMOPN  DC    H'0'                NUMBER OF VALID VALUES FOR OPT PARMS
PARMCMMD DC    X'00'               COMMAND
$PARMLOC EQU   X'80'               .. LOCATE PARAMETER AND VALIDATE
$PARMWTO EQU   X'40'               .. ISSUE WTOR PROMPT FOR PARAMETER
$PARMEWTO EQU  X'20'               .. ISSUE ERROR WTO/PROMPT FOR PARM
$PARMMIS EQU   X'10'               .. RETURN MESSAGE FOR MISSING PARMS
$PARMINT EQU   X'08'               .. INITIALIZE PARMS IN DITTCOMM
PARMPARM DC    X'00'               PARAMETER ID TO LOCATE
PARMWORK DC    CL44' '             OPERAND OF CORRESPONDING PARAMETER
PARMWLEN DC    XL2'0000'           LENGTH OF OPERAND
PARMFLAG DC    X'00'               FLAGS/INDICATORS
$PARMOK  EQU   X'80'               .. PARAMETER FOUND/OPERAND GOOD
$PARMCAN EQU   X'40'               .. OPERATOR REQUESTED 'CANCEL'
$PARMCKE EQU   X'20'               .. ERROR FOUND BY CHECKER MODULE
         MEXIT
.NONAME  ANOP
         MNOTE    12,'NAME REQUIRED WHEN TYPE=DSECT'
         MEND
