*--------------------------------------------------------------------*
*                                                                    *
*        PRINTER REQUEST BLOCK                                       *
*                                                                    *
*--------------------------------------------------------------------*
         MACRO
&NAME    PRTBLOK  &TYPE=
         AIF      ('&TYPE' EQ 'DSECT').DSECT
&NAME    DS       0C
         AGO      .NODSECT
.DSECT   ANOP
         AIF      (T'&NAME EQ 'O').NONAME
&NAME    DSECT
.NODSECT ANOP
PRTCMMD  DC    X'00'               COMMAND
$PRTHEAD EQU   X'80'               .. INITIAL HEADINGS
$PRTCMD  EQU   X'40'               .. PRINT COMMAND
$PRTDATA EQU   X'20'               .. PRINT DATA
PRTCC    DC    C' '                CARRIAGE CONTROL
PRTDATA  DC    CL120' '            PRINT DATA
         MEXIT
.NONAME  ANOP
         MNOTE    12,'NAME REQUIRED WHEN TYPE=DSECT'
         MEND
