)ATTR
  % TYPE(TEXT)   INTENS(HIGH) COLOR(&SCUPCHTX) HILITE(&SCUPHHTX)
  + TYPE(TEXT)   INTENS(LOW)  COLOR(&SCUPCNTX) HILITE(&SCUPHNTX)
  _ TYPE(INPUT)  INTENS(HIGH) COLOR(&SCUPCSTI) HILITE(&SCUPHSTI)
  { TYPE(TEXT)   INTENS(LOW)  COLOR(&SCUPCFDS) HILITE(&SCUPHFDS)
  } TYPE(OUTPUT) INTENS(LOW)  COLOR(&SCUPCOVR) HILITE(&SCUPHOVR) CAPS(OFF)
  \ TYPE(TEXT)   INTENS(HIGH) COLOR(&SCUPCHTX) HILITE(BLINK)
)BODY
%-----------------------  BATCH PROCESS SUBMIT PANEL  --------------------------
%OPTION %===>_OPT
+
%    E+- Edit the generated job
%    B+- Browse the generated job
%    S+- Submit the generated job
%    C+- Cancel without Submit
+
+Data set containing the generated job is:
%    }DSNX
+
)INIT
 .CURSOR = OPT
 &OPT = &Z
)PROC
   &SOPT=TRUNC(&OPT,1)
   VER (&SOPT,LIST,B,C,E,S)
)END
