*          DATA SET CBT840     AT LEVEL 001 AS OF 09/29/77
         MACRO                                                          00001
&N       DTIME &FIELD                                                   00002
&N       TIME  DEC                                                      00003
         CNOP  0,4                                                      00004
         STM   0,1,*+8                                                  00005
         B     *+12                                                     00006
         DC    2F'0'                                                    00007
         EDIT  TO=&FIELD,FROM=*-14,MASK=' 99/99/99.99F ZZ99.999'        00008
         MEND                                                           00009
         MACRO                                                          00010
&NAME    EDIT  &TO=,&FROM=,&MASK=                                       00011
.*                                                                      00012
.*             MACRO-ID. 'EDIT'.                                        00013
.*             AUTHOR.   DON HIGGINS.                                   00014
.*             DATE WRITTEN.  07/18/70.                                 00015
.*             REMARKS.                                                 00016
.*                  FUNCTION - GENERATE MASK AND/OR INSTRUCTIONS TO     00017
.*                             EDIT PACKED DECIMAL DATA FOR PRINTING.   00018
.*                  OPERANDS                                            00019
.*                   TO=   LABEL OF DISPLAY FIELD INTO WHICH THE EDITED 00020
.*                         DATA WILL BE PLACED IF SPECIFIED.            00021
.*                   FROM= LABEL OF PACKED DECIMAL DATA TO BE EDITED    00022
.*                         IF SPECIFIED.                                00023
.*                   MASK= STRING OF UP TO 48 CHARACTERS IN SINGLE      00024
.*                         QUOTES DEFINING EDIT MASK SIMILAR            00025
.*                         TO A COBOL PICTURE.  THIS OPERAND IS         00026
.*                         REQUIRED.  IF THE OTHER TWO OPERANDS ARE NOT 00027
.*                         DEFINED, A DC WITH THE DESIRED MASK IS       00028
.*                         GENERATED.  SPECIAL EDIT CHARACTERS ARE AS   00029
.*                         FOLLOWS:                                     00030
.*                            Z - DIGIT SELECT WITH ZERO SURPRESSION    00031
.*                            9 - DIGIT SELECT WITHOUT ZERO SURPRESSION 00032
.*                            F - FIELD SELECT RESETS SIGNIFICANCE TO   00033
.*                                ALLOW MULTIPLE FIELD EDITING          00034
.*                            $ - DIGIT SELECT WITH ZERO SURPRESSION    00035
.*                                AND FLOATING DOLLAR SIGN.             00036
.*                  NOTES:                                              00037
.*                   1.  THE FIRST MASK CHARACTER IS USED AS THE FILL   00038
.*                       CHARACTER IN ALL FIELDS.                       00039
.*                   2.  THE FOLLOWING EXAMPLE WOULD EDIT BOTH THE TIME 00040
.*                       AND DATE OBTAINED USING THE TIME MACRO         00041
.*                            .                                         00042
.*                            TIME DEC                                  00043
.*                            STM  0,1,PDATA                            00044
.*                            EDIT TO=LINE+10,FROM=PDATA,               00045
.*                                 MASK=' 99/99/99.99F ZZ99.999'        00046
.*                            .                                         00047
.*                       PDATA DS  2F     (HHMMSSTH00YYDDDC)            00048
.*                       LINE  DC  CL133' '                             00049
.*                            .                                         00050
.*                   3.  THE FOLLOWING EXAMPLE WOULD GENERATE A DC      00051
.*                       LABELED MASKPAY TO BE USED AS A MASK FOR       00052
.*                       EDITING DIFFERENT FILEDS.                      00053
.*                            .                                         00054
.*                       MASKPAY   EDIT MASK=' Z,ZZZ,ZZ9.99 CR'         00055
.*                            .                                         00056
.*                   4.  THE MASK CHARACTERS DETERMINE EXPLICIT LENGTH. 00057
.*                   5.  MULTIPLE FIELDS CANNOT CONTAIN FLOATING        00058
.*                       DOLLAR SIGNS.                                  00059
.*                                                                      00060
         LCLA  &LMASK,&SIGNF,&NEXT,&FIELDS,&FLOAT                       00061
         LCLC  &C,&C1,&C2,&C3,&C4,&C5,&C6                               00062
         AIF   (T'&MASK NE 'U').BADMASK                                 00063
&LMASK   SETA  K'&MASK-2                                                00064
         AIF   (&LMASK GT 48).BADMASK                                   00065
         AIF   (&LMASK LT 1).BADMASK                                    00066
         AIF   ('&MASK'(1,1) NE '''').BADMASK                           00067
         AIF   ('&MASK'(&LMASK+2,1) NE '''').BADMASK                    00068
.LOOP    ANOP                                                           00069
&NEXT    SETA  &NEXT+1                                                  00070
         AIF   (&NEXT GT &LMASK).GEN                                    00071
&C       SETC  '&MASK'(&NEXT+1,1)                                       00072
         AIF   ('&C' EQ '9').NINE                                       00073
         AIF   ('&C' EQ 'Z').ZZZZ                                       00074
         AIF   ('&C' EQ '$').DOLLAR                                     00075
         AIF   ('&C' EQ 'F').FIELD                                      00076
.AD1     AIF   ('&C1' GT '9999999').AD2                                 00077
&C1      SETC  '&C1&C'                                                  00078
         AGO   .LOOP                                                    00079
.AD2     AIF   ('&C2' GT '9999999').AD3                                 00080
&C2      SETC  '&C2&C'                                                  00081
         AGO   .LOOP                                                    00082
.AD3     AIF   ('&C3' GT '9999999').AD4                                 00083
&C3      SETC  '&C3&C'                                                  00084
         AGO   .LOOP                                                    00085
.AD4     AIF   ('&C4' GT '9999999').AD5                                 00086
&C4      SETC  '&C4&C'                                                  00087
         AGO   .LOOP                                                    00088
.AD5     AIF   ('&C5' GT '9999999').AD6                                 00089
&C5      SETC  '&C5&C'                                                  00090
         AGO   .LOOP                                                    00091
.AD6     AIF   ('&C6' GT '9999999').BADMASK                             00092
&C6      SETC  '&C6&C'                                                  00093
         AGO   .LOOP                                                    00094
.NINE    AIF   (&SIGNF EQ 0).SETSIG                                     00095
.ZZZZ    ANOP                                                           00096
&C       SETC  ''       (11-0-1-8-9)=X'20'  DIGIT SELECT               00097
         AGO   .AD1                                                     00098
.DOLLAR  ANOP                                                           00099
&FLOAT   SETA  1                                                        00100
         AGO   .ZZZZ                                                    00101
.FIELD   ANOP                                                           00102
&C       SETC  ''       (0-2-9)=X'22'       FIELD SELECT               00103
&SIGNF   SETA  0                                                        00104
&FIELDS  SETA  1                                                        00105
         AGO   .AD1                                                     00106
.SETSIG  ANOP                                                           00107
&C       SETC  ''       (0-1-9)=X'21'       SIGNIFICANCE STARTER       00108
&SIGNF   SETA  &NEXT                                                    00109
         AGO   .AD1                                                     00110
.GEN     AIF   (T'&TO EQ 'O').GENDC                                     00111
         AIF   (T'&FROM EQ 'O').BADFROM                                 00112
         AIF   (&FLOAT EQ 1).GENFL                                      00113
&NAME    MVC   &TO.(&LMASK.),=CL&LMASK.'&C1&C2&C3&C4&C5&C6'             00114
         ED    &TO.(&LMASK.),&FROM                                      00115
         MEXIT                                                          00116
.GENDC   AIF   (T'&FROM NE 'O').BADTO                                   00117
&NAME    DC    CL&LMASK.'&C1&C2&C3&C4&C5&C6'                            00118
         MEXIT                                                          00119
.GENFL   AIF   (&FIELDS NE 0).BADMIX                                    00120
         AIF   (&SIGNF  GT 0).GENLA                                     00121
&NAME    LA    1,1                                                      00122
         MVC   &TO.(&LMASK.),=CL&LMASK.'&C1&C2&C3&C4&C5&C6'             00123
         EDMK  &TO.(&LMASK.),&FROM                                      00124
         BCT   1,*+8                                                    00125
         B     *+8                                                      00126
         MVI   0(1),C'$'                                                00127
         MEXIT                                                          00128
.GENLA   ANOP                                                           00129
&NAME    LA    1,&TO.+&SIGNF                                            00130
         MVC   &TO.(&LMASK.),=CL&LMASK.'&C1&C2&C3&C4&C5&C6'             00131
         EDMK  &TO.(&LMASK.),&FROM                                      00132
         BCTR  1,0                                                      00133
         MVI   0(1),C'$'                                                00134
         MEXIT                                                          00135
.BADMIX  MNOTE 0,'MULTIPLE FIELDS CANNOT CONTAIN FLOATING DOLLAR SIGNS' 00136
         MEXIT                                                          00137
.BADMASK MNOTE 0,'INVALID MASK (1-48 CHARACTERS IN SINGLE QUOTES)'      00138
         MEXIT                                                          00139
.BADTO   MNOTE 0,'MISSING TO FIELD'                                     00140
         MEXIT                                                          00141
.BADFROM MNOTE 0,'MISSING FROM FIELD'                                   00142
         MEXIT                                                          00143
         MEND                                                           00144
         MACRO                                                          00145
         EQUREGS &LIMITS                                                00146
.*                                                                      00147
.*             MACRO-ID. 'EQUREGS'.                                     00148
.*             AUTHOR. DON HIGGINS.                                     00149
.*             DATE WRITTEN. 08/04/70.                                  00150
.*             REMARKS.                                                 00151
.*                 THIS MACRO GENERATES EQU STATEMENTS FOR 1 TO 16      00152
.*                 SYMBOLIC REGISTER NAMES OF THE FORM R0 UP TO R15     00153
.*             THE REGISTER EQU DESIRED CAN BE SPECIFIED IN THE FORM    00154
.*             OF  (0,15), (14,1), (2,6), ETC.                          00155
         LCLA  &LOW,&HIGH                                               00156
         AIF   (N'&SYSLIST EQ 1).GETLIM                                 00157
.DEFAULT ANOP                                                           00158
&LOW     SETA  0                                                        00159
&HIGH    SETA  15                                                       00160
.GEN     ANOP                                                           00161
R&LOW    EQU   &LOW                                                     00162
         AIF   (&LOW EQ &HIGH).DONE                                     00163
&LOW     SETA  &LOW+1                                                   00164
         AIF   (&LOW LE 15).GEN                                         00165
&LOW     SETA  0                                                        00166
         AGO   .GEN                                                     00167
.GETLIM  AIF   (N'&SYSLIST(1) NE 2).DEFAULT                             00168
         AIF   (T'&SYSLIST(1,1) NE 'N').DEFAULT                         00169
         AIF   (T'&SYSLIST(1,2) NE 'N').DEFAULT                         00170
&LOW     SETA  &SYSLIST(1,1)                                            00171
         AIF   (&LOW LT 0).DEFAULT                                      00172
         AIF   (&LOW GT 15).DEFAULT                                     00173
&HIGH    SETA  &SYSLIST(1,2)                                            00174
         AIF   (&HIGH LT 0).DEFAULT                                     00175
         AIF   (&HIGH GT 15).DEFAULT                                    00176
         AGO   .GEN                                                     00177
.DONE    MEXIT                                                          00178
         MEND                                                           00179
         MACRO                                                          00180
         FILL   &TAG,&FILL=C' '                                         00181
         LCLA  &LTAG                                                    00182
.*             AUTHOR.   DON HIGGINS.                                   00183
.*             DATE.     09/16/71.                                      00184
.*             REMARKS.  FILL REMAINDER OF AREA WITH FILL CHARACTER.    00185
&LTAG    SETA  L'&TAG                                                   00186
         DC    (&LTAG)&FILL                                             00187
         ORG   &TAG+&LTAG                                               00188
         MEND                                                           00189
         MACRO                                                          00190
&NAME    IOB   &FLAGS=,&ECB=,&CCW=,&DCB=,&ID=                           00191
.*             AUTHOR.   DON HIGGINS.                                   00192
.*             DATE.     11/23                                          00193
.*             REMARKS.  INPUT/OUTPUT CONTROL BLOCK MACRO.              00194
.*                       REF. SYS. PROG. GUIDE C28-6550-6 PG 139        00195
.*                                                                      00196
&NAME    DS    0F                                                       00197
         DC    &FLAGS         FLAGS 1  0-CD 1-CC 6-NOT REL 23457-RESV   00198
         DC    XL1'00'        FLAGS 2  RESERVED                         00199
SNS&ID   DC    XL2'00'        FIRST TWO SENSE BYTES AFTER UNIT CHECK    00200
         DC    XL1'00'        ECB CODE                                  00201
ECB&ID   DC    AL3(&ECB)      EVENT CONTROL BLOCK ADDRESS               00202
         DC    XL1'00'        FLAGS 3 RESERVED                          00203
CSW&ID   DC    XL7'00'        CHANNEL STATUS WORD (LOW ORDER 7 BYTES)   00204
         DC    XL1'00'        SIO CODE (INS LENGTH X CONDITION CODE)    00205
CCW&ID   DC    AL3(&CCW)      CHANNEL COMMAND WORD ADDRESS              00206
         DC    XL1'00'        RESERVED                                  00207
DCB&ID   DC    AL3(&DCB)      DATA CONTROL BLOCK ADDRESS                00208
         DC    XL1'00'        REPOSITION MODIFIER                       00209
         DC    AL3(0)         RESTART ADDRESS                           00210
         DC    H'0'           BLOCK COUNT INCREMENT                     00211
         DC    H'0'           ERROR COUNTS                              00212
         DC    XL1'00'        M - EXTENT ENTRY IN DEB                   00213
         DC    XL7'00'        SEEK ADDRESS BBCCHHR                      00214
         MEND                                                           00215
         MACRO                                                          00216
&N       PENTRY                                                         00217
.*             AUTHOR.   DON HIGGINS.                                   00218
.*             DATE.     01/06/75.                                      00219
.*             REMARKS.  PERFORM ROUTINE ENTRY POINT WITH TRACE OPTION. 00220
.*                       SEE PTRACE MACRO FOR TRACE INFO.               00221
         GBLB  &PTRACE                                                  00222
         GBLC  &PTNAME                                                  00223
         GBLC  &PENAME                                                  00224
&PENAME  SETC  '&N'                                                     00225
         DC    0H'0',CL8'&N'                                            00226
         B     *+4                                                      00227
&N       EQU   *                                                        00228
         AIF   (&PTRACE EQ 0).NOTRACE                                   00229
         PM    &PTNAME                                                  00230
.NOTRACE ANOP                                                           00231
         MEND                                                           00232
         MACRO                                                          00233
&N       PERFORM &PENTRY                                                00234
&N       MVC   &PENTRY-2(2),*+10                                        00235
         B     &PENTRY                                                  00236
         DC    S(*+2)                                                   00237
         MEND                                                           00238
         MACRO                                                          00239
&N       PEXIT                                                          00240
         GBLC  &PENAME                                                  00241
&N       B     &PENAME-4                                                00242
         MEND                                                           00243
         MACRO                                                          00244
&NAME    SCALL &SUBNAME,&ARGLIST                                        00245
.*             AUTHOR.   DON HIGGINS.                                   00246
.*             DATE.     11/09/70.                                      00247
.*             REMARKS.  SHORT FORM OF IBM CALL MACRO WITH NO VL.       00248
         AIF   (T'&ARGLIST EQ 'O').NOARG                                00249
&NAME    LA    1,=A&ARGLIST        LOAD ARGUMENT LIST ADDRESS           00250
         L     15,=V(&SUBNAME)     LOAD SUBPROGRAM ENTRY ADDRESS        00251
         BALR  14,15               BRANCH AND LINK                      00252
         MEXIT                                                          00253
.NOARG   ANOP                                                           00254
&NAME    L     15,=V(&SUBNAME)     LOAD SUBPROGRAM ENTRY ADDRESS        00255
         BALR  14,15               BRANCH AND LINK                      00256
         MEND                                                           00257
         MACRO                                                          00258
&NAME    SUBENTRY &CSECT=YES,&BASES=(13),                              X00259
               &RENT=NO,&RWA=,&RWALNG=0,&SP=0                           00260
         LCLA  &NBASE,&S,&OFFSET                                        00261
.*             MACRO-ID. 'SUBENTRY'                                     00262
.*             AUTHOR.   DON HIGGINS.                                   00263
.*             DATE WRITTEN.  07/28/70.                                 00264
.*             REMARKS.  THIS MACRO GENERATES THE CODE TO ESTABLISH A   00265
.*                       CSECT WITH SAVE AREA AND BASE REGISTER USING   00266
.*                       STANDARD OS LINKAGE CONVENTIONS.               00267
.*             REV1 11/14/74 ADD REENTRANT OPTION WITH WORK AREA        00268
.*                 1.  FOR REENTRANT LINKAGE YOU MUST SPECIFY           00269
.*                     A.  RENT=YES                                     00270
.*                     B.  AT LEAST ONE BASE REGISTER OTHER THAN 13     00271
.*                         SUCH AS BASES=(R12)                          00272
.*                 2.  OPTIONALLY YOU CAN SPECIFY A DSECT NAME AND      00273
.*                     LENGTH FOR A WORK AREA BUILT BEHIND SAVE AREA.   00274
.*                     FOR EXAMPLE  RWADSECT=MYWORK,RWALNG=8            00275
.*                     NOTE THAT THIS WORK AREA LENGTH MUST ALSO BE     00276
.*                     SPECIFIED AT SUBEXIT TIME TO CORRECTLY CALCULATE 00277
.*                     THE FREEMAIN LENGTH.                             00278
.*             REV2 02/10/76 DSH - ADD SUBPOOL OPTION                   00279
         AIF   ('&CSECT'(1,1) EQ 'N').NOCSECT                           00280
&NAME    CSECT                                                          00281
         AGO   .STM                                                     00282
.NOCSECT ANOP                                                           00283
&NAME    DS    0D                                                       00284
.STM     ANOP                                                           00285
         AIF   ('&RENT'(1,1) EQ 'N').NORENT                             00286
.RENT    ANOP                                                           00287
         STM   14,12,12(13)                                             00288
         BAL   &BASES(1),16(15)                                         00289
         USING &NAME+8,&BASES(1)                                        00290
         DC    CL8'&NAME'                                               00291
         LA    0,72+&RWALNG                                             00292
         AIF   ('&SP' EQ '0').SKIPSP                                    00293
         LA    1,&SP                                                    00294
         SLL   1,24                                                     00295
         OR    0,1                                                      00296
.SKIPSP  ANOP                                                           00297
         GETMAIN R,LV=(0)                                               00298
         ST    1,8(13)                                                  00299
         ST    13,4(1)                                                  00300
         LM    14,1,12(13)                                              00301
         L     13,8(13)                                                 00302
         AIF   ('&RWALNG' EQ '0').GEN                                   00303
         USING &RWA-72,13                                               00304
         AGO   .GEN                                                     00305
.NORENT  ANOP                                                           00306
         STM   14,12,12(13)                                             00307
         BAL   15,88(15)                                                00308
         DC    9D'0'                                                    00309
         DC    CL8'&NAME'                                               00310
         ST    15,8(13)                                                 00311
         ST    13,4(15)                                                 00312
         LR    13,15                                                    00313
         AIF   (T'&BASES(1) NE 'N').CHKR13                              00314
         AIF   (&BASES(1) EQ 13).GENB13                                 00315
         AGO   .GENBX                                                   00316
.CHKR13  ANOP                                                           00317
         AIF   ('&BASES'(2,3) EQ 'R13').GENB13                          00318
.GENBX   ANOP                                                           00319
         LR    &BASES(1),13                                             00320
         USING &NAME+8,&BASES(1)                                        00321
         AGO   .GEN                                                     00322
.GENB13  ANOP                                                           00323
         USING &NAME+8,13                                               00324
.GEN     ANOP                                                           00325
&NBASE   SETA  N'&BASES                                                 00326
&S       SETA  1                                                        00327
.L1      ANOP                                                           00328
&S       SETA  &S+1                                                     00329
         AIF   (&S GT &NBASE).EXIT                                      00330
&OFFSET  SETA  &OFFSET+4095                                             00331
         LA    &BASES(&S),4095(&BASES(&S-1))                            00332
         USING &NAME+8+&OFFSET,&BASES(&S)                               00333
         AGO   .L1                                                      00334
.EXIT    ANOP                                                           00335
         MEND                                                           00336
         MACRO                                                          00337
&NAME    SUBEXIT &RC=0,&RENT=NO,&RWALNG=0,&SP=0                         00338
.*             MACRO-ID. 'SUBEXIT'.                                     00339
.*             AUTHOR.   DON HIGGINS.                                   00340
.*             DATE WRITTEN.  07/28/70.                                 00341
.*             REMARKS.  THIS MACRO GENERATES THE CODE TO RESTORE       00342
.*                       REGISTERS AND RETURN FROM A CSECT.  A RETURN   00343
.*                       CODE OF ZERO IS RETURNED UNLESS A DIFFERENT    00344
.*                       CODE IS SPECIFIED USING THE KEY WORD RC=.      00345
.*             REV1 11/14/74 ADD REENTRANT OPTION. SEE SUBENTRY.        00346
.*             REV2 12/09/74 ADD REG OPTION FOR RC OPERAND.             00347
.*             REV3 02/10/76 DSH - ADD SUBPOOL OPTION                   00348
         AIF   ('&RC'(1,1) EQ '(').RCREG                                00349
         LA    15,&RC                                                   00350
         AGO   .CHKRENT                                                 00351
.RCREG   ANOP                                                           00352
         LR    15,&RC                                                   00353
.CHKRENT ANOP                                                           00354
         AIF   ('&RENT'(1,1) EQ 'N').NORENT                             00355
.RENT    ANOP                                                           00356
&NAME    L     13,4(13)                                                 00357
         STM   15,1,16(13)                                              00358
         LA    0,72+&RWALNG                                             00359
         AIF   ('&SP' EQ '0').SKIPSP                                    00360
         LA    1,&SP                                                    00361
         SLL   1,24                                                     00362
         OR    0,1                                                      00363
.SKIPSP  ANOP                                                           00364
         L     1,8(13)                                                  00365
         FREEMAIN R,LV=(0),A=(1)                                        00366
         LM    14,12,12(13)                                             00367
         BR    14                                                       00368
         AGO   .EXIT                                                    00369
.NORENT  ANOP                                                           00370
&NAME    L     13,4(13)                                                 00371
         L     14,12(13)                                                00372
         LM    2,12,28(13)                                              00373
         BR    14                                                       00374
.EXIT    ANOP                                                           00375
         MEND                                                           00376
         MACRO                                                          00377
&N       SYSIN                                                          00378
&N       DCB   DSORG=PS,MACRF=GM,DDNAME=&N,RECFM=FB,LRECL=80            00379
         MEND                                                           00380
         MACRO                                                          00381
&N       SYSPRINT                                                       00382
&N       DCB   DSORG=PS,MACRF=PM,DDNAME=&N,RECFM=FA,BLKSIZE=133         00383