/**********************************************************************
/* EDIT MACRO JOBC
/* WILL GENERATE A JOB CARD VIA LDGN021.
/*
/*---------------------------------------------------------------------
/* AMENDED BY
/* AMENDED BY NS ON 20.10.88 TO MAKE NOKEEP THE DEFAULT OPTION
/*                              ALSO, IF OPTION IS ?, GO TO HELP MENU
/* CREATED BY NS ON 25.11.87
/*
/*---------------------------------------------------------------------
/* FOR LIST OF EDIT MACRO, PANEL AND MESSAGE MEMBERS, SEE LDGN021.
/*
/**********************************************************************
    ISREDIT MACRO (OPT TEST DEBUG)
    IF &TEST = TEST THEN +
      CONTROL LIST
    IF &DEBUG = DEBUG THEN +
      CONTROL LIST CONLIST SYMLIST
    SET &NULL =
    SET &RC   = 0

                                        /*----------------------------*/
                                        /* "OPT = ?" MEANS GO TO      */
                                        /* TUTORIAL                   */
                                        /*----------------------------*/
    IF &OPT = ? THEN +
      ISPEXEC SELECT PGM(ISPTUTOR) PARM(LHGN021)
    ELSE +
      DO

                                        /*----------------------------*/
                                        /* CALL JOB CARD MACRO.       */
                                        /* "OPT = KEEP" MEANS TRY AND */
                                        /* RETRIEVE INFO FROM EXISTING*/
                                        /* JOB CARD, IF FOUND.  THIS  */
                                        /* IS ONLY AVAILABLE WHEN     */
                                        /* ENTERING VIA THIS MACRO.   */
                                        /* IF ENTERING VIA "GEN", ETC.*/
                                        /* THE OPTION MUST BE SET VIA */
                                        /* THE "GPARMS" MACRO.        */
                                        /*----------------------------*/
      IF &OPT = &NULL THEN +
        SET &OPT = NOKEEP
                                                    /* DEFAULT JOBOPT */
      ELSE +
        IF &OPT = N     THEN +
          SET &OPT = NOKEEP
        ELSE +
          IF &OPT = K     THEN +
            SET &OPT = KEEP
          ELSE +
            IF &OPT ¬= KEEP && +
               &OPT ¬= NOKEEP THEN +
              SET &OPT = NOKEEP
                                                    /* DEFAULT JOBOPT */

      ISPEXEC SELECT CMD(%LDGN021 JOBOPT(&OPT) &TEST &DEBUG) NEWPOOL
      SET &RC = &LASTCC
    END

                                        /*----------------------------*/
                                        /* BACK TO USER               */
                                        /*----------------------------*/
    ISPEXEC CONTROL DISPLAY REFRESH
    EXIT CODE(&RC)
