         MACRO
&NAME    CLEARSCR
         GBLA  &CLRVDU
* ******************************************************************* *
*                                                                     *
*                         C L E A R S C R                             *
*                                                                     *
*                      CLEAR THE VDU DISPLAY                          *
*                                                                     *
         AIF   ('&CLRVDU' GT '1').GO2
&CLRVDU  SETA  1
.GO2     ANOP
&NAME    LA    1,$CLRL&CLRVDU      GET LENGTH
         TPUT  $CLR&CLRVDU,(1),FULLSCR
         B     $CLREND&CLRVDU
$CLR&CLRVDU DC    X'27'         ECC
         DC    X'F5'         ERASE/WRITE
         DC    X'C1'         WCC
         DC    X'115D7F'     SBA L24C80
         DC    X'3C5D7F00'   RA  L24C80,X'00'
$CLRL&CLRVDU EQU   *-$CLR&CLRVDU
$CLREND&CLRVDU EQU    *
&CLRVDU  SETA  &CLRVDU+1
*                                                                     *
*                                                            K.E.F    *
* ******************************************************************* *
         MEND
