         TITLE 'C A T A L O G -   TSO CATALOG MAINTENANCE PROCESSOR'
         SPACE 2
         MACRO
&NAME    MSG   &TEXT
         LCLA  &A
&A       SETA  K'&TEXT-2+4
&NAME    DC    H'&A',H'0',C&TEXT
         MEND
         EJECT
         MACRO
&NAME    CLEAR &FIELD
         LCLC  &L
&L       SETC  'L'''
&NAME    MVI   &FIELD,X'40'
         MVC   &FIELD+1(&L&FIELD-1),&FIELD
         MEND
         EJECT
         MACRO
&NAME    ENTER
&NAME    DS    0H
         STM   14,12,12(13) .      SAVE CALLING REGISTERS
         L     WORKR,4(R1) .       RESTORE WORK AREA ADDR
         LM    DATAR,BASE,BASES .  RESTORE BASE REGISTER
         L     R8,0(R1) .          LOAD PDS ADDRESS
         ST    OSAVE,VSAVE+4 .     CHAIN OLD SAVE AREA ADDR
         LR    R15,OSAVE .         SAVE OLD SAVE AREA ADDR
         LA    OSAVE,VSAVE .       LOAD NEW SAVE AREA ADDR
         ST    OSAVE,8(R15) .      CHAIN NEW SAVE AREA ADDR
         MEND
         EJECT
         MACRO
&NAME    EXIT
&NAME    DS    0H
         L     OSAVE,VSAVE+4
         RETURN (14,12),T,RC=(15)
         MEND
         TITLE 'C A T A L O G -   TSO CATALOG MAINTENANCE PROCESSOR'
R0       EQU   0                   REGISTER 0
R1       EQU   1                   REGISTER 1
R2       EQU   2                   REGISTER 2
R3       EQU   3                   REGISTER 3
R4       EQU   4                   REGISTER 4
R5       EQU   5                   REGISTER 5
R6       EQU   6                   REGISTER 6
R7       EQU   7                   REGISTER 7
R8       EQU   8                   REGISTER 8
LINK     EQU   9                   INTERNAL LINKAGE REGISTER
WORKR    EQU   10                  WORK AREA ADDRESS REGISTER
DATAR    EQU   11                  DATA AREA ADDRESS REGISTER
BASE     EQU   12                  BASE ADDRESS REGISTER
OSAVE    EQU   13                  O/S SAVE AREA ADDRESS
R14      EQU   14                  REGISTER 14
R15      EQU   15                  REGISTER 15
         SPACE 1
FCLIST   EQU   128                 BIT TO INDICATE CLIST
FCMD     EQU   64                  BIT TO INDICATE COMMAND
FNULL    EQU   32                  BIT TO INDICATE NULL LINE
FATTN    EQU   16                  BIT TO INDICATE ATTENTION
FCBUF    EQU   8                   BIT TO INDICATE CBUF INPUT
FEXIT    EQU   4                   BIT TO INDICATE EXIT REQUESTED
         SPACE 1
FINDEX   EQU   128                 BIT TO INDICATE INDEX
FCVOL    EQU   64                  BIT TO INDICATE CVOL
FSEQ     EQU   32                  BIT TO INDICATE SEQ NO
FUNIT    EQU   16                  BIT TO INDICATE UNIT
FALIAS   EQU   8                   BIT TO INDICATE ALIAS
FGEN     EQU   4                   BIT TO INDICATE GENERATION DS
FDSNX    EQU   2                   BIT TO INDICATE FIRST DSN RECV
         SPACE 1
LPAREN   EQU   C'('                LEFT PAREN
RPAREN   EQU   C')'                RIGHT PAREN
PERIOD   EQU   C'.'                PERIOD
BLANK    EQU   C' '                SPACE
FF       EQU   X'FF'               HIGH VALUE
         EJECT
***********************************************************************
*                                                                     *
* TITLE -      CATALOG     TSO CATALOG MAINTENANCE PROCESSOR          *
*                                                                     *
*                                                                     *
* RELEASE -    1.1         CATALOG RELEASE                            *
*                                                                     *
* AUTHOR -     MICHAEL LEE EMIGH                                      *
*              UNITED AIR LINES - EXOKF COMPUTER CENTER               *
*              1200 W. ALGONQUIN ROAD                                 *
*              ELK GROVE VILLAGE, ILLINOIS                            *
*              PHONE: 312-952-4371
*                                                                     *
*                                                                     *
* FUNCTION -   THE CATALOG COMMAND ALLOWS THE TSO USER TO REFERENCE   *
*              AND MAINTAIN THE OS CATALOG                            *
*              THE CATALOG COMMAND PROVIDES OPTIONS TO CATALOG OR     *
*              UNCATALOG A DATA SET, BUILD OR DELETE AN INDEX OR AN   *
*              ALIAS, BUILD A GENERATION DATA GROUP, CONNECT OR       *
*              RELEASE TWO VOLUMES, DISPLAY CATALOGED DATA SET VOLUME *
*              SERIAL NUMBERS, AND SCRATCH AND RENAME DATA SETS       *
*              RESIDING ONLINE DIRECT ACCESS DEVICES.                 *
*                                                                     *
* INPUT -      STANDARD LINKAGE CONVENTIONS                           *
*              REGISTER 1 - ADDRESS OF COMMAND PROCESSOR PARAMETER    *
*                           LIST
*                                                                     *
*                                                                     *
* OUTPUT -     RETURN TO TERMINAL MONITOR PROGRAM                     *
*              REGISTER 15 CONTAINS RETURN CODE AS FOLLOWS            *
*                 0 - NO ERRORS ENCOUNTERED                           *
*                >0 - LAST RETURN CODE FROM A FUNCTION                *
*                                                                     *
*                                                                     *
* ATTRIBUTES - REENTERANT, REUSABLE, REFRESHABLE                      *
*                                                                     *
* NOTES -      THIS ROUTINE INTERFACES TO THE OPERATION SYSTEM        *
*              BY THE USE OF CAMLST MACROS.                           *
*              UNDER SOME VERSIONS OF MVS, THESE MACROS ARE NOT       *
*              SUPPORTED.                                             *
*              ALSO, UNDER MVS, THERE IS NO (OR LIMITED) SUPPORT      *
*              OF ALIAS/INDEX BUILDING IN THE VSAM MASTER CATALOG.    *
*                                                                     *
*                                                                     *
*                                                                     *
***********************************************************************
         EJECT
CATALOG  CSECT                     TSO CATALOG MAINTENANCE PROCESSOR
         SAVE  (14,12),T,*         SAVE CALLING REGISTERS
         LR    BASE,R15            LOAD BASE ADDRESS REGISTER
         USING CATALOG,BASE        GIVE BASE ADDRESS TO ASSEMBLER
         LR    R2,OSAVE            SAVE O/S SAVE AREA ADDR
         LR    R5,R1               SAVE CPPL ADDRESS
         LA    DATAR,DATAREA       LOAD DATA AREA ADDRESS
         USING DATAREA,DATAR       GIVE DATA AREA ADDR TO ASSEMBLER
         L     R4,WASIZE           LOAD WORK AREA SIZE
         GETMAIN R,LV=(R4)         GET MAIN STORAGE FOR WORK AREA
         LR    WORKR,R1            LOAD WORK AREA ADDR REG
         USING WORKAREA,WORKR      GIVE WORK AREA ADDR TO ASSEMBLER
         LR    R0,R1               LOAD WORK AREA ADDRESS FOR CLEAR
         LR    R1,R4               LOAD WORK AREA LENGTH
         SR    R3,R3               CLEAR PAD CHARACTER AND ZERO LENGTH
         MVCL  R0,R2               CLEAR WORK AREA TO ZERO
         STM   DATAR,BASE,BASES    SAVE BASE REGISTERS
         ST    R2,SAVE+4           CHAIN OLD SAVE AREA
         LA    OSAVE,SAVE          LOAD NEW SAVE AREA ADDR
         ST    OSAVE,8(R2)         CHAIN NEW SAVE AREA
         LR    R3,R5               COPY CPPL ADDRESS TO R3
         EJECT
         USING CPPL,R3             GIVE CPPL ADDR TO ASSEMBLER
         MVC   AUPT,CPPLUPT        SAVE UPT ADDR
         MVC   AECT,CPPLECT        SAVE ECT ADDR
         MVC   APSCB,CPPLPSCB      SAVE PSCB ADDR
         LA    R1,IOPLPARM         LOAD IOPL ADDRESS
         USING IOPL,R1             *
         MVC   IOPLECT,CPPLECT     MOVE ECT ADDR TO IOPL
         MVC   IOPLUPT,CPPLUPT     MOVE UPT ADDR TO IOPL
         LA    R0,ATTNECB          LOAD ATTENTION ECB ADDR
         ST    R0,IOPLECB          STORE IN IOPL
         LOAD  EPLOC=IKJPUTL       LOAD PUTLINE SERVICE ROUTINE
         ST    R0,APUTL            SAVE IKJPUTL EP ADDR
         LOAD EPLOC=IKJPTGT        LOAD PUTGET SERVICE ROUTINE
         ST    R0,APTGT            SAVE IKJPTGT EP ADDR
         LOAD  EPLOC=IKJSCAN       LOAD COMMAND SCAN ROUTINE
         ST    R0,ASCAN            SAVE IKJSCAN EP ADDR
         LOAD  EPLOC=DEVNAMET LOAD DEVICE NAME TABLE
         ST    R0,ADEVNT           SAVE DEVNAMET EP ADDR
         MVC   MSGENTER,MSGENT     MOVE IN ENTER MSG
         L     R4,AECT             LOAD ECT ADDRESS
         USING ECT,R4              SET ECT DSECT
         MVC   MSGENTER+5(8),ECTPCMD MOVE COMMAND NAME TO MSG
         TM    ECTSWS,128          TEST IF INPUT IN CMD BUFFER
         BO    CMD                 IF NOT THEN GO GET COMMAND
         MVC   ACBUF,CPPLCBUF       SAVE COMMAND BUFFER ADDR
         OI    FLAGS,FCMD+FCBUF    INDICATE COMMAND PRESENT
         B     CMD                 GO GET A NEW COMMAND
         DROP  R3
         DROP  R4
         EJECT
OPTIONS  DS    0H                  DISPLAY OPTIONS FOR USER
         LA    R2,OPTNTBL          LOAD OPTION TABLE ADDRESS
         SPACE 2
OPTIONS0 DS    0H                  ADVANCE TO NEXT OPTION
         MVC   MSGTEXT1,0(R2)      MOVE TEXT TO TEMP BUFFER
         LA    R1,MSGTEXT1         LOAD TEMP BUFFER ADDR
         BAL   LINK,PUTLINE        BAL TO PUTLINE ROUTINE
         B     CMD                 RETURN HERE IF ATTENTION
         MVC   0(2,OSAVE),0(R2)    MOVE AND ALIGN OPT LENGTH
         LH    R1,0(OSAVE)         LOAD OPT LENGTH
         LA    R1,1(R1)            ROUND TO NEXT HALFWORD
         SRL   R1,1                MULTIPLE
         SLL   R1,1                TIMES 2
         AR    R2,R1               NEXT OPTION
         CLI   0(R2),FF            END OF LIST
         BNE   OPTIONS0            NO, REPEAT
         EJECT
CMD      DS    0H                  GET NEXT COMMAND
         MVI   ATTNECB,0           CLEAR ATTENTION ECB
         NI    FLAGS,FF-FATTN      DISALLOW ATTENTIONS
         TM    FLAGS,FEXIT         TEST IF EXIT REQUESTED
         BO    RETURN              IF YES THEN EXIT
         STAX  ,                   NULLIFY ATTN EXITS
         XC    CAMLIST(20),CAMLIST CLEAR CAM LIST AREA
         XC    VCB(256),VCB        CLEAR VOLUME CONTROL BLOCK
         TM    FLAGS,FCMD          COMMAND BUFFER AVAILABLE
         BO    CMD0                YES, GO ANALYZE
         LA    R1,MSGENTER         LOAD ENTER MSG ADDR
         BAL   LINK,PUTGET         BAL TO PUTGET ROUTINE
         B     FLUSH               ATTENTION ENTERED
         SPACE 2
CMD0     DS    0H                  SET UP FOR SUBCOMMAND SCAN
         NI    FLAGS,FF-FCMD       CLEAR COMMAND FLAG
         MVI   FLAGS+1,0           CLEAR STATUS FLAGS
         TM    FLAGS,FCBUF         TEST IF CMD FROM INPUT BUFFER
         BZ    *+8                 IF NOT SKIP NEXT INSTRUCTION
         OI    FLAGS,FEXIT+FCMD    SET EXIT FLAG
         LA    R1,PARMLIST         LOAD PARM LIST ADDR
         USING CSPL,R1             SET CSPL DSECT
         MVC   CSPLUPT,AUPT        MOVE UPT ADDR TO CSPL
         MVC   CSPLECT,AECT        MOVE ECT ADDR TO CSPL
         LA    R0,ATTNECB          LOAD ATTENTION ECB ADDR
         ST    R0,CSPLECB          MOVE ATTN ECB ADDR TO CSPL
         MVI   ATTNECB,0           CLEAR ATTENTION ECB
         LA    R0,SCANAREA         LOAD SCAN ANSWER AREA ADDR
         ST    R0,CSPLOA           MOVE ADDR TO CSPL
         XC    SCANAREA,SCANAREA   CLEAR SCAN AREA
         LA    R0,R14SAVE          LOAD R14 SAVE AREA ADDR
         ST    R0,CSPLFLG          STORE IN CSPL
         XC    R14SAVE,R14SAVE     CLEAR R14 SAVE AREA
         MVC   CSPLCBUF,ACBUF      MOVE CMD BUF ADDR TO CSPL
         L     R15,ACBUF           LOAD COMMAND BUFFER ADDRESS
         LH    R14,2(R15)          LOAD OFFSET
         LA    R2,4(R14,R15)       POINT TO OFFSET
         LH    R3,0(R15)           LOAD LINE LENGTH
         SR    R3,R14              ADJUST FOR OFFSET
         SH    R3,=H'4'            MINUS 4 FOR PREFIX
         L     R15,ASCAN           LOAD CMD SCAN ADDR
         BALR  R14,R15             BAL TO INVOKE CMD SCAN
         LA    R1,SCANAREA         LOAD ANSWER AREA ADDR
         USING CSOA,R1             SET CSOA DSECT
         TM    CSOAFLG,CSOANOC     EMPTY BUFFER
         BO    CMD                 YES, STILL NEED CMD
         TM    CSOAFLG,CSOAVWP+CSOAVNP VALID COMMAND
         BNZ   CMD1                YES, GO CHECK
         LA    R1,MSGINVLD         INVALID CMD MSG
         B     CMD4                GO GET NEW CMD
         EJECT
CMD1     DS    0H                  CHECK A COMMAND
         L     R2,CSOACNM          LOAD COMMAND NAME ADDR
         LH    R3,CSOALNM          LOAD NAME LENGTH
         BCTR  R3,0                MINUS 1 FOR EXEC
         DROP  R1
         LA    R1,CMDLIST          LOAD CMD TABEL ADDR
         SR    R15,R15             SET UP FOR CMD SCAN
         SR    R14,R14             DITTO
         SPACE 2
CMD2     DS    0H                  SCAN FOR THE COMMAND
         IC    R15,8(R1)           LOAD CMD LENGTH
         CR    R15,R3              CHECK CMD LENGTH
         BNH   CMD3                *
         CLC   0(0,R1),0(R2)       COMPARE COMMANDS
         EX    R3,*-6              CHECK COMMAND NAME
         BE    CMD5                MATCH, MUST BE COMMAND
         SPACE 2
CMD3     DS    0H                  ADVANCE TO NEXT COMMAND
         LA    R1,16(R1)           NEXT ENTRY IN TABLE
         CLI   0(R1),FF            END OF TABLE
         BNE   CMD2                NO, CONTINUE
         LTR   R14,R14             COMMAND SELECTED?
         BNZ   CMD6                YES, GO CHECK
         LA    R1,MSGINVLD         CMD INVALID MSG
         SPACE 2
CMD4     DS    0H                  ERROR IN COMMAND
         MVC   MSGTEXT1,0(R1)      MOVE MAIN MSG TEXT
         LH    R15,MSGTEXT1        LOAD MSG LENGTH
         LA    R14,MSGTEXT1(R15)   POINT TO END OF MSG
         MVC   0(0,R14),0(R2)      MOVE INVALID CMD TO MSG
         EX    R3,*-6              EXECUTE FOR PROPER LENGTH
         LA    R15,1(R3,R15)       COMPUTE NEW MSG LENGTH
         STH   R15,MSGTEXT1        STORE IN MSG
         LA    R1,MSGTEXT1         LOAD NEW MSG ADDRESS
         SR    R0,R0               INDICATE NO SECOND LEVEL MSG
         BAL   LINK,ERRORMSG       WRITE ERROR MSG TO TERMNL
         NOP   0                   IGNORE ATTENTIONS
         TM    FLAGS,FCLIST        FROM CLIST?
         BO    FLUSH               YES, THEN PERMANENT ERROR
         B     CMD                 GO PRINT OPTIONS
         SPACE 2
CMD5     DS    0H                  GOT A VALID COMMAND
         LTR   R14,R14             PREVIOUS CMD SELECTED
         LR    R14,R1              SAVE CMD ADDR
         BZ    CMD3                NO, FIRST SELECTED
         LA    R1,MSGAMBIG         LOAD AMBIG. MSG ADDR
         B     CMD4                YES, THEN ERROR
         EJECT
CMD6     DS    0H                  VALID COMMAND
         MVC   APCL,12(R14)        SAVE PCL ADDRESS
         L     R1,8(R14)           GET COMMAND PROCESSOR ADDR
         ST    R1,ACMD             SAVE IT
         TM    APCL,X'40'          IGNORE OPTIONS?
         BO    CMD7                YES
         BAL   LINK,PARSE          GET THE COMMAND OPERANDS
         B     CMD                 ATTENTION ENTERED
         SPACE 2
CMD7     DS    0H                  CALL COMMAND
         XC    PARMLIST(20),PARMLIST CLEAR PARM LIST AREA
         STAX  ATTNX,USADDR=(WORKR),REPLACE=YES,IBUF=0,OBUF=0,         X
               MF=(E,PARMLIST)
         OI    FLAGS,FATTN         ALLOW ATTENTIONS
         L     R15,ACMD            LOAD COMMAND ADDRESS
         BR    R15                 LINK TO COMMAND PROCESSOR
         EJECT
ATTNX    DS    0H                  ATTENTION EXIT
         SAVE  (14,12)             SAVE CALLING REGS
         L     WORKR,8(R1)         LOAD WORK AREA ADDRESS
         LM    DATAR,BASE,BASES    LOAD BASE REGISTERS
         LA    R15,ASAVE           LOAD ATTENTION SAVE AREA ADDR
         ST    OSAVE,ASAVE+4       CHAIN OLD SAVE AREA
         ST    R15,8(OSAVE)        CHAIN NEW SAVE AREA
         LR    OSAVE,R15           LOAD NEW SAVE AREA ADDR
         TCLEARQ OUTPUT            CLEAR OUTPUT BUFFERS
         TM    FLAGS,FATTN         ATTENTIONS ALLOWED?
         BZ    ATTNX0              NO, EXIT
         TM    FLAGS,FEXIT         TEST IF EXIT FLAG ON
         BO    ATTNX0              IF YES THEN EXIT
         LA    R1,MSGENTER         LOAD OPT ENTER MSG ADDR
         BAL   LINK,PUTGET         GET USERS COMMAND RESPONSE
         NOP   0                   IGNORE ANOTHER ATTENTION
         TM    FLAGS,FNULL         NULL LINE ENTERED
         BO    ATTNX0              YES, JUST LEASE
         OI    FLAGS,FCMD          INDICATE COMMAND AVAILABLE
         POST  ATTNECB             POST ATTENTION ECB
         SPACE 2
ATTNX0   DS    0H                  ATTENTION EXIT
         SR    R15,R15             RETURN TO ZERO
         L     OSAVE,ASAVE+4
         RETURN (14,12),RC=(15)    RETURN TO O/S
         EJECT
VOL      DS    0H                  VOL COMMAND PROCESSOR
         OI    CAMLIST,68          INSERT CAMLIST LOCATE BITS
         LA    R0,VCB              LOAD VCB ADDRESS
         ST    R0,CAMLIST+12       STORE VCB ADDRESS IN CAMLIST
         LOCATE CAMLIST            ISSUE LOCATE MACRO
         ST    R15,RETCODE         SAVE RETURN CODE
         LTR   R15,R15             SUCCESSFUL?
         BZ    VOL2                YES
         LA    R14,8               RETURN CODE 8
         CR    R14,R15             DATA SET NOT CATLG?
         BE    VOL1                YES
         L     R1,LOCMSGL(R15)     LOAD LOCATE MSG ADDR
         BAL   LINK,PUTLINE        LINK TO PUTLINE ROUTINE
         NOP   0                   *
         B     CMD                 GO GET NEXT CMD
         SPACE 2
VOL1     DS    0H                  DATA SET IS NOT CATALOGED
         LH    R2,LDSNX            LOAD DSNAME LENGTH
         LA    R2,4(R2)            INCREMENT BY PREFIX LENGTH
         MVC   MSGTEXT1+4,DSNAMEX  MOVE DSNAME TO MSG AREA
         LA    R3,MSGTEXT1(R2)     POINT PAST DSNAME
         MVC   0(L'MSGNCAT,R3),MSGNCAT MOVE NOT CATLG MSG IN
         LA    R2,L'MSGNCAT(R2)    CORRECT LENGTH
         SLL   R2,16               SHIFT TO HIGH BYTES
         ST    R2,MSGTEXT1         STORE LENGTH IN MSG
         LA    R1,MSGTEXT1         LOAD MSG ADDRESS
         BAL   LINK,PUTLINE        LINK TO PUTLINE ROUTINE
         NOP   0                   *
         B     CMD                 GO GET NEXT CMD
         SPACE 2
VOL2     DS    0H                  *
         OI    FLAGS,FATTN         ALLOW ATTENTIONS
         TM    FLAGS+1,FGEN        TEST IF GENERATION DATA SET
         BZ    VOL3                NO, SKIP THIS PARA.
         LA    R2,48               ADD LINE PREFIX LENGTH
         SLL   R2,16               SHIFT TO HIGH BYTES
         ST    R2,MSGTEXT1         STORE IN MSG AREA
         MVC   MSGTEXT1+4(L'DSNAMEX),DSNAMEX MOVE DSN TO MSG AREA
         LA    R1,MSGTEXT1         LOAD MSG ADDRESS
         BAL   LINK,PUTLINE        LINK TO PUTLINE ROUTINE
         B     CMD                 ATTENTION ENTERED
         EJECT
VOL3     DS    0H                  PRINT OUT VOLUME SERIAL NMBRS
         LA    R1,MSGHVOL          LOAD VOLUME PRT HEADER
         BAL   LINK,PUTLINE        LINK TO PUTLINE ROUTINE
         B     CMD                 ATTENTION ENTERED
         CLEAR MSGTEXT1            CLEAR MSG AREA
         LA    R0,12               LOAD MSG LENGTH + PREFIX
         SLL   R0,16               SHIFT TO HIGH BYTES
         ST    R0,MSGTEXT1         STORE LENGTH IN MSG AREA
         LH    R2,VCBNVOLS         LOAD NUMBER OF VOLUMES
         LR    R3,R2               SAVE NUMBER OF VOLS      *HMD 07/81*
         CH    R3,=H'20'           LOAD VCB MAXIMUM         *HMD 07/81*
         BNH   *+8                 IF NOT HIGH THEN OK      *HMD 07/81*
         LA    R3,20               RESET VOL COUNT          *HMD 07/81*
         USING VCBFLD,R4           SET VCB FIELD DSECT      *HMD 07/81*
         LA    R4,VCBENT           LOAD FIRST ENTRY ADDR    *HMD 07/81*
         SPACE 2
VOL4     DS    0H                  VOLUME PRINT LOOP
         SR    R2,R3               DECREMENT VOL COUNT      *HMD 07/81*
VOL4A    MVC   MSGTEXT1+6(6),VCBVOL MOVE VOLSER TO MSG AREA *HMD 07/81*
         LA    R1,MSGTEXT1         LOAD MSG AREA ADDR
         BAL   LINK,PUTLINE        LINK TO PUTLINE ROUTINE
         B     CMD                 ATTENTION ENTERED
         LA    R4,12(R4)           ADVANCE TO NEXT FIELD
         BCT   R3,VOL4A            IF MORE THEN REPEAT
         LTR   R2,R2               ARE THERE MORE ENTRIES   *HMD 07/81*
         BZ    CMD                 GO GET NEXT CMD
VOL5     DS    0H                                           *HMD 07/81*
         OC    VCBTTR,VCBTTR       IS TTR FIELD ZERO?       *HMD 07/81*
         BZ    CMD                 YES, END OF VOLUME LIST  *HMD 07/81*
         OC    VCBCVOL,VCBCVOL     IS CVOL ENTRY ZERO?      *HMD 07/81*
         BZ    CMD                 ERROR IN CATLG STRUCTURE *HMD 07/81*
         XC    CAMLIST(20),CAMLIST CLEAR CAMLIST            *HMD 07/81*
         MVC   TTRX,VCBTTR         MOVE TTR TO SAFE PLACE   *HMD 07/81*
         MVC   XCVOL,VCBCVOL       MOVE CVOL VOLSER ALSO    *HMD 07/81*
         OI    CAMLIST,194         INDICATE BLOCK FORM      *HMD 07/81*
         LA    R0,TTRX             SAVE ADDRESS OF TTR      *HMD 07/81*
         ST    R0,CAMLIST+4        IN CAMLST                *HMD 07/81*
         LA    R0,XCVOL            SAVE ADDRESS OF CVOL VOLSER
         ST    R0,CAMLIST+8        IN CAMLIST               *HMD 07/81*
         LA    R0,VCB              SAVE ADDRESS OF AREA     *HMD 07/81*
         ST    R0,CAMLIST+12       IN CAMLST                *HMD 07/81*
         LOCATE CAMLIST            ISSUE LOCATE SVC         *HMD 07/81*
         LTR   R15,R15             WAS LOCATE SUCCESSFUL    *HMD 07/81*
         BZ    VOL6                YES CONTINUE             *HMD 07/81*
         LA    R1,MSGMCAT          LOCATE FAILED            *HMD 07/81*
         LA    R0,MSGLCAT          TELL THE USER SO         *HMD 07/81*
         BAL   LINK,ERRORMSG       PUT OUT ERROR MESSAGE    *HMD 07/81*
         NOP   0                   IGNORE ATTN INTERRUPTION *HMD 07/81*
         B     CMD                 GET NEXT COMMAND         *HMD 07/81*
VOL6     LH    R3,VCBNVOLS         LOAD NUMBER OF VOLS      *HMD 07/81*
         CH    R3,=H'20'           MORE THAN 20?            *HMD 07/81*
         BNH   *+8                 NO, DO ALL OF 'EM        *HMD 07/81*
         LA    R3,20               ONLY DO 20 AT A TIME     *HMD 07/81*
         LA    R4,VCBENT           POINT TO CURRENT ENTRY   *HMD 07/81*
         B     VOL4                CONTINUE LISTING         *HMD 07/81*
         EJECT
CATLG    DS    0H                  CATLG COMMAND PROCESSOR
         OI    CAMLIST,68          INSERT CAMLIST LOCATE BITS
         LA    R0,XVCB             LOAD EXTRA VCB ADDRESS
         ST    R0,CAMLIST+12       STORE VCB ADDRESS IN CAMLIST
         LOCATE CAMLIST            ISSUE LOCATE MACRO
         ST    R15,RETCODE         SAVE RETURN CODE
         LTR   R15,R15             IS DATA SET ALREADY CATALOGED?
         BZ    CATLG5              YES, THEN ERROR
         LA    R4,VCBENT           LOAD VCB ENTRIES ADDR
         LH    R3,VCBNVOLS         LOAD NUMBER OF ENTRIES
         USING VCBFLD,R4           SET VCB FIELD DSECT
         TM    FLAGS+1,FUNIT       TEST IF UNIT ENTERED
         BO    CATLG0              YES
         MVC   UNIT,=XL4'32008003' MOVE IN DEFAULT UNIT
         CLI   VCBVOL,C'0'         NUMERIC
         BNL   CATLG0              YES, THEN TAPE DEFAULT
         MVC   UNIT,=XL4'30502009' ELSE RESET TO DISK DEFAULT
         SPACE 2
CATLG0   DS    0H                  WRITE MSG TO TERMINAL
         TM    FLAGS+1,FSEQ        TEST IF SEQUENCE NUMBER ENTERED
         BO    CATLG1              YES
         MVC   SEQNO,=H'1'         MOVE IN DEFAULT SEQUENCE NO
         SPACE 2
CATLG1   DS    0H                  *
         MVC   VCBSEQ,SEQNO        MOVE IN SEQUENCE NO
         MVC   VCBUNIT,UNIT        MOVE IN UNIT TYPE
         TM    FLAGS+1,FUNIT       TEST IF UNIT ENTERED
         BO    CATLG3              YES
         LA    R1,MSGUTAPE         LOAD TAPE DEFAULT MESSAGE
         TM    VCBUNIT+2,X'20'     TEST IF DIRECT ACCESS DEVICE
         BNO   CATLG2              IF NOT THEN ASSUME TAPE
         LA    R1,MSGUDA           LOAD 3330 DEFAULT MESSAGE
         BAL   LINK,UCBCK          CHECK IF VOL SER IS ONLINE
         B     CATLG2              RETURNS HERE IF NOT FOUND
         B     CATLG3              RETURNS HERE IF FOUND
         SPACE 2
CATLG2   DS    0H                  *
         MVC   MSGTEXT1,0(R1)      SET UP DEFAULT MESSAGE
         LA    R1,MSGTEXT1         POINT TO MESSAGE
         LH    R15,MSGTEXT1        LOAD MSG TEXT LENGTH
         LA    R14,0(R1,R15)       POINT TO END OF MESSAGE
         MVC   0(6,R14),VCBVOL     MOVE VOL/SER TO MESSAGE TEXT
         LA    R15,6(,R15)         ADD IN VOL/SER LENGTH
         STH   R15,MSGTEXT1        SAVE MSG TEXT LENGTH
         BAL   LINK,PUTLINE        LINK AND PRINT LINE
         B     CMD                 RETURNS HERE IF ATTENTION
         EJECT
CATLG3   DS    0H                  *
         TM    VCBUNIT+2,X'20'     TEST IF DIRECT ACCESS DEVICE
         BNO   CATLG4              IF NOT THEN ASSUME TAPE
         XC    VCBSEQ,VCBSEQ       SET SEQUENCE UMBER TO ZERO
         SPACE 2
CATLG4   DS    0H                  *
         LA    R4,12(R4)           ADVANCE TO NEXT ENTRY
         BCT   R3,CATLG1           IF MORE ENTRIES REPEAT
         OI    CAMLIST,100         INSERT CATALOG CAMLIST BITS
         MVI   CAMLIST+1,64        INSERT FUNCTION BITS
         LA    R0,VCB              LOAD VCB ADDRESS
         ST    R0,CAMLIST+12       STORE VCB ADDRESS IN CAMLIST
         CATALOG CAMLIST           ISSUE CATALOG MACRO
         ST    R15,RETCODE         SAVE RETURN CODE
         L     R1,CATMSGL(R15)     LOAD MSG ADDRESS
         BAL   LINK,PUTLINE        LINK TO PUTLINE ROUTINE
         NOP   0                   IGNORE ATTENTIONS
         B     CMD                 GO GET NEXT COMMAND
         SPACE 2
CATLG5   DS    0H                  DATA SET IS ALREADY CATALOGED
         LH    R2,LDSNX            LOAD DSNAME LENGTH
         LA    R2,4(R2)            ADD MSG PREFIX LENGTH
         MVC   MSGTEXT1+4,DSNAMEX  MOVE DSNAME TO MSG AREA
         LA    R3,MSGTEXT1(R2)     POINT PAST DSNAME
         MVC   0(L'MSGACAT,R3),MSGACAT MOVE ALREADY CATLG MSG
         LA    R2,L'MSGACAT(R2)    ADJUST MSG LENGTH
         SLL   R2,16               SHIFT TO HIGH ORDER BYTES
         ST    R2,MSGTEXT1         STORE IN MSG AREA
         LA    R1,MSGTEXT1         LOAD MSG ADDRESS
         BAL   LINK,PUTLINE        LINK TO PUTLINE ROUTINE
         NOP   0                   IGNORE ATTENTIONS
         B     CMD                 GO GET NEXT COMMAND
         EJECT
DLTA     DS    0H                  DLTA COMMAND PROCESSOR
         MVI   CAMLIST+1,1         INSERT FUNCTION BYTES
         B     INDEX               GO BUILD CAMLIST
         SPACE 2
BLDA     DS    0H                  BLDA COMMAND PROCESSOR
         MVI   CAMLIST+1,16        INSERT FUNCTION BYTE
         OI    CAMLIST,64          INSERT BLDA CAMLIST BITS
         B     INDEX               GO BUILD INDEX CAMLIST
         SPACE 2
RELEASE  DS    0H                  RELEASE COMMAND PROCESSOR
         MVI   CAMLIST+2,128       INSERT RELEASE CAMLIST BITS
         B     INDEX               GO BUILD INDEX CAMLIST
         SPACE 2
DLTX     DS    0H                  DLTX COMMAND PROCESSOR
         MVI   CAMLIST+1,4         INSERT DLTX CAMLIST BITS
         B     INDEX               GO BUILD CAMLIST
         SPACE 2
BLDX     DS    0H                  BLDX COMMAND PROCESSOR
         MVI   CAMLIST+1,64        INSERT BLDX CAMLIST BITS
         SPACE 2
INDEX    DS    0H                  INDEX PROCESSOR ROUTINE
         OI    CAMLIST,4           INSERT INDEX PROCESSOR BITS
         INDEX CAMLIST             EXEC INDEX MACRO
         ST    R15,RETCODE         SAVE RETURN CODE
         L     R1,CATMSGL(R15)     LOAD MSG ADDR
         BAL   LINK,PUTLINE        LINK TO PUTLINE ROUTINE
         NOP   0                   *
         B     CMD                 GO GET NEXT CMD
         EJECT
CONNECT  DS    0H                  CONNECT COMMAND PROCESSOR
         LA    R4,VCBENT           LOAD VCB ENTRY ADDRESS
         USING VCBFLD,R4           SET VCB DSECT
         ST    R4,CAMLIST+12       STORE VOL ADDR IN CAM LIST
         MVC   VCBUNIT,UNIT        MOVE UNIT TYPE TO VCB
         TM    FLAGS+1,FUNIT       TEST IF UNIT ENTERED
         BO    CONNECT0            IF YES THEN SKIP SEARCH
         BAL   LINK,UCBCK          LINK TO UCB CHECK ROUTINE
         B     CONNECT1            RETURNS HERE IF ERROR
         SPACE 2
CONNECT0 DS    0H                  SETUP CAMLIST
         MVI   CAMLIST+1,8         INSERT FUNCTION BITS
         OI    CAMLIST,64          INSERT CONNECT CAMLIST BITS
         B     INDEX               GO BUILD INDEX CAMLIST
         SPACE 2
CONNECT1 DS    0H                  CONNECT VOL SER ERROR
         LA    R1,MSGNCON          LOAD ERROR MSG ADDRESS
         MVC   MSGTEXT2,MSGNMT     MOVE MSG TO MSG AREA
         MVC   MSGTEXT2+12(6),VCBVOL MOVE IN VOL SER
         LA    R0,MSGTEXT2         LOAD MSG ADDRESS
         BAL   LINK,ERRORMSG       LINK TO ERROR MSG ROUTINE
         NOP   0                   IGNORE ATTENTIONS
         B     CMD                 GO GET NEXT COMMAND
         SPACE 2
BLDG     DS    0H                  BLDG COMMAND PROCESSOR
         L     R7,ANSADDR          LOAD PDL ADDRESS
         USING PDLBLDG,R7          SET PDL DSECT