)ATTR
 @ TYPE(OUTPUT) INTENS(LOW)
 # TYPE(OUTPUT) INTENS(HIGH)
)BODY
%------------ ISL (Browse) -----------------------------------------------------
%Option ===>_OPT                                         +    %Scroll ===>_AMT +
%&ADDMSG                                               +Library:%&SLSS+Seq.:#Z
+Enter Manual-ID in OPTION field or select manual below.
+S Manual-ID Ver Num O Location ------------------- Title ----------------------
+===============================================================================
)MODEL
_Z@Z        @Z +@Z  @Z@Z       @Z
)INIT
 .CURSOR = OPT
 .HELP   = SLSST000
 .ZVARS  = '(CIBSRTKY SELECT SLSID SLSSVER SLSSNUM ORDSTS BOOK NAME1)'
 &OPT    = ' '
 &SELECT = ' '
 &AMT    = HALF
)END
