         MACRO
&NAME    JRP4DS
JRP4DS   DSECT
**********************************************************************
*
*     JRP4DS
*
*     DEFINES THE COMMUNICATION MAPPING FOR THE JRP400 STORAGE AREA
*
**********************************************************************
JRP4STAT DS    C             JRP400 RUN MODE
*                            R = RUN
*                            S = STOP/SHUTDOWN
*                              = JRP400 IDLE / AVAILABLE FOR WORK
JRP4DSRN DS    XL1           SUB RECORD NUMBER
*                              = HEX VALUE FROM 00 TO 39
*JRP4IINI DC    XL1'00'        JRP INIT
*JRP4IEND DC    XL1'01'        JRP END
*JRP4ICIC DC    XL1'02'        JRP CONSOLE OPERATOR ISSUED COMMAND
*JRP4ICIP DC    XL1'03'        JRP CONSOLE OPERATOR ISSUED STOP CMD
*JRP4IUSO DC    XL1'05'        JRP USER SIGNON
*JRP4IUSF DC    XL1'06'        JRP USER SIGNOFF
*JRP4IUIS DC    XL1'07'        JRP USER >INVALID< SIGNON
*JRP4IUIC DC    XL1'09'        JRP USER ISSUED COMMAND
*JRP4IDSP DC    XL1'10'        JRP DEVICE START OF PRINT
*JRP4IDEP DC    XL1'11'        JRP DEVICE END OF PRINT
*JRP4IDDE DC    XL1'12'        JRP DEVICE DEVICE ERROR
JRP4DAID DS    CL4           APPLICATION ID
*                              NORMALLY JRP
JRP4DCID DS    CL4           CONSOLE ID
*                              NORMALLY CJRP
JRP4DSMF DS    XL1           SMF ID TO BE USED
*                              DEFAULT 255 / X'FF'
*JRP4DUID DS    CL8           USERID
*JRP4DDID DS    CL8           DEVICE ID
JRP4DATA DS    CL40          RECORD DATA
JRP4EPA  DS    F             JRP400 EPA
         MEND
