         MACRO
&NAME    JRP4SMF
JRP4SMF  DSECT
* ********************************************************************
*
*    JRP4SMF
*    TO MAP THE SMF RECORD CREATED BY JRP400
*    CHANGE LOG:
*      SKV  03/10/07   CREATED
*
* ********************************************************************
SMFBFR   DS    0CL59    OFFSET (CONSTANT LENGTH OF 59 CHARACTERS)
SMFRCDD  DS    0F        0      SMF RECORD AREA
SMFRLEN  DS    XL2       0      RECORD LENGTH
SMFRSEG  DS    XL2       2      SEGMENT LENGTH
SMFRFLG  DS    XL1       4      FLAG BYTE
SMFRRTY  DS    XL1       5      RECORD NUMBER
SMFRTME  DS    XL4       6      TIME IN HUNDREDS OF A SEC
SMFRDTE  DS    PL4      10      DATE 0CYYDDDF
SMFRSID  DS    CL4      14      SYSTEM ID
SMFRSRT  DS    XL1      18      SUB RECORD TYPE
SMFRAPID DS    CL4      19      APPLICATION ID
SMFRTXT  DS    CL40     23      TEXT
SMFBFRX  EQU   *-SMFBFR
         MEND
