         MACRO
&NAME    JRPSMAC
         TITLE 'STATIC STORAGE'
***********************************************************************
*                                                                     *
*             MACRO NAME = JRPSMAC                                    *
*                                                                     *
*             DESCRIPTIVE NAME =  STATIC AREA FOR JRP.COPIED TO       *
*                    DYNAMIC AREA BY JRP100.                          *
*                                                                     *
*             AUTHOR = MIKE SCHORTMAN -                               *
*                                                                     *
*             COPYRIGHT = 9/8/82                                      *
*                                                                     *
*              MODIFIED =                                             *
*                                                                     *
*             STATUS =                                                *
*                                                                     *
*                                                                     *
*             FUNCTION =                                              *
*                                                                     *
*                                                                     *
*                                                                     *
*                OPERATION =                                          *
*                                                                     *
*                                                                     *
*                                                                     *
*                                                                     *
*              NOTES =                                                *
*                                                                     *
*                 DEPENDENCIES = MUST STAY IN SYNC WITH JRPDMAC.      *
*                                                                     *
*                                                                     *
*                                                                     *
*                 REGISTER CONVENTIONS = STANDARD CONVENTIONS.        *
*                                                                     *
*                PROCESSOR = MACRO                                    *
*                                                                     *
*                LINKAGE =                                            *
*                   EXPANDED IN JRP100 MODULE.                        *
*                                                                     *
*             INPUT = NONE.                                           *
*                                                                     *
*             OUTPUT = NONE                                           *
*                                                                     *
*             EXIT - NORMAL = MEND.                                   *
*                                                                     *
*             CHANGE ACTIVITY = NONE                                  *
*                                                                     *
*             MESSAGES =                                              *
*                                                                     *
*                THIS PROGRAM IS THE PROPERTY OF MIKE SCHORTMAN,      *
*                CONN. MUTUAL LIFE INS. CO.                           *
*                                                                     *
*                                                                     *
***********************************************************************
J2SWA    DS    0D
         PUSH  PRINT
J2SBFR   DC    C'                  BEGINNING ON                   '
J2SCMWT1 WTO   'JRPI100        ',MCSFLAG=(REG0),MF=L
J2SOPER  WTO   'JRPX000                                                X
                   ',MF=L,ROUTCDE=(8)
J2SWERR  WTO   'JRPE100         -                         ,R15=999',   X
               MF=L
J2SFLSMS DC    C'                   OUTPUT TERMINATED BY            '
J2SBEG   DC    0CL91' ',CL91'*'
J2SCMT2  DS    0F                  CURRENT OPTIONS MESSAGE
         DC    AL2(J2SCMT2E-*)     L'TXT+L'ROUT+L'DESC
         DC    X'4000'             MCSFLAG=(REG0)
         DC    C'JRPI101 '
J2SPRT   DC    CL8'RXXXXXXX'
         DC    C' LU='
J2SLUID  DC    C'        '         DEFAULT LUID
         DC    CL1' '
J2SSTAT  DC    CL10'INACTIVE  '    PRINTER STATUS
J2SNME   DC    CL18'                  ' NAME AND NUMBER
         DC    C',F='
J2SFORM  DC    C'    '             CURRENT FORM
         DC    C',R='
J2SDEST  DC    CL8'LOCAL   '       CURRENT DESTINATION
         DC    C',S='
J2SSEP   DC    CL1'Y'              DEFAULT PAGE SEPERATORS
         DC    C',LPP='
J2SLEN2  DC    C'068'              DEFAULT PAGE SIZE
         DC    C',MLIN='
J2SMLNE2 DC    C'9999'             DEFAULT PAGE WIDTH
         DC    C',C='
J2SCLAS  DC    CL8'        '       CURRENT CLASS(ES)
         DC    C',SCS='
J2SSCS   DC    CL1'Y'              SCS OPTION Y/N
         DC    C',LGMD='
J2SLGMD  DC    CL8'        '       CURRENT LOGMODE
         DC    C',RCD='
J2SBROK1 DC    CL3'00'             CURRENT LOGMODE
         DC    C',FB2='
J2SBROK2 DC    CL3'00'             CURRENT LOGMODE
         DC    C',SENSE='
J2SBROK3 DC    CL9'00000000'       CURRENT LOGMODE
J2SCMT2E EQU   *                   NO ROUT/DESC W/ REG0
J2SLEN   DC    F'68'               PAGE SIZE
J2SMLNE  DC    F'9999'             PAGE WIDTH
         DS    0F
J2STWT   DC    F'0'
J2SMDL   EQU   *-J2SWA
         POP   PRINT
         MEND
