         MACRO
&NAME    JRPTMAC
J1TWA    DSECT
****NOTE NOTE NOTE  MUST KEEP STATIC AND DYNAMIC AREAS IN SYNC***
****DYNAMIC IS GETMAINED AND STATIC IS USED TO INITIALIZE IT.
J1TPWA   DS    0D
***********************************************************************
*  EVERYTHING FROM HERE ON IS SET TO LOW VALUES AT INIT TIME          *
***********************************************************************
J1TRQBF  DS    0F
         DC    X'F5C3',X'114058',X'1DE8'     ROW 1  COL 25         *SKV
         DC    C'CONTROL TERMINAL FACILITY'                        *SKV
         DC    X'11423B',X'1DE8'             ROW 3  COL 28         *SKV
         DC    C'JRP VER. II REL. S1'                              *SKV
         DC    X'11C7F3',X'1DF8'             ROW 7  COL 20         *SKV
         DC    CL13'USER-ID  ===>'                                 *SKV
         DC    X'11C8C1',X'1DC5'             ROW 7  COL 34         *SKV
J1TUID   DC    CL7' '                                              *SKV
         DC    X'11C8C9',X'1DF8'      *EOL*  ROW 7  COL 42         *SKV
         DC    X'114CF3',X'1DF8'             ROW 11 COL 20         *SKV
         DC    CL13'PASSWORD ===>'                                 *SKV
         DC    X'114DC1',X'1DCD'             ROW 11 COL 34         *SKV
J1TPWD   DC    CL8' '                                              *SKV
         DC    X'114D4A',X'1DF8'      *EOL*  ROW 11 COL 43         *SKV
         DC    X'115A5B',X'1DF8'             ROW 22 COL 12         *SKV
J1TERRLN DC    80C' '                                              *SKV
         DC    X'11C8C2'                     ROW 7  COL 35         *SKV
         DC    X'13'                  *IC                          *SKV
J1TRQBFL EQU   *-J1TRQBF
J1DOUTBF DS    0F
         DC    X'F5C3115D7F',X'1DE8'
         DC    C' '
J1DLUNM  DC    12C' '
J1DTIME  DC    CL12'05:05:05 '
J1DCMDSV DC    CL8'         ',X'11'
J1DADD1  DC    X'C14F'
         DC    X'1DE8'
J1DAREA1 DC    80C' ',X'11'
J1DADD2  DC    X'C14F'
         DC    X'1DE8'
J1DAREA2 DC    80C' '
J1DENDSC DC    X'115D6B1D4013'
J1DCMDLN DC    50C' '
J1DOUTLN EQU   *-J1DOUTBF
MOREDATA DC    XL7'F1C3115B601DE8'
         DC    CL12'MORE........'
MOREND   DC    XL6'115CF81D4013'
CLERDATA DC    XL7'F1C3115B601DE8'
         DC    CL12'            '
CLEREND  DC    XL6'115CF81D4013'
J1DPRI   DS    0F
         DC    X'C150C260C3F0C540C650'
         DC    X'C760C8F04A404B504C60'
         DC    X'4DF04F405050D160D2F0'
         DC    X'D440D550D660D7F0D940'
         DC    X'5A505B60',C'TEND'
J1DALT   DS    0F
         DC    X'C150C260C3F0C540C650'
         DC    X'C760C8F04A404B504C60'
         DC    X'4DF04F405050D160D2F0'
         DC    X'D440D550D660D7F0D940'
         DC    X'5A505B605CF05E405F50'
         DC    X'606061F0E340E450F560'
         DC    X'E6F0E840E9506A606BF0'
         DC    X'6D406E506F60F0F0F240'
         DC    X'F350F460'
         DC    C'TEND'
         DS    0F
J1DRPLG  RPL   AM=VTAM
         DS    0F
J1DNIBG  NIB   MODE=RECORD
         DS    0F
J1DENTST DS    F
J1TNXTLN DS    F
J1TPWT   DS    F
J1TRPL   DS    F
J1TACB   DS    F
J1TARG   DS    F
J1TNIB   DS    F
J1DADTBL DS    F
J1DCOLS  DS    F
J1DCOLM1 DS    F
J1TADDSV DS    F
J1TNEWAD DS    F
J1TNEWLN DS    F
ST3      DS    F
ST4      DS    F
ST5      DS    F
ST6      DS    F
ST7      DS    F
ST8      DS    F
ST9      DS    F
ST10     DS    F
J1TLUID  DS    CL8
J1DUSER  DS    CL7
J1DPSWD  DS    CL8
CLEAR    DS    X
J1TFLG   DS    X
J1TFLG1  DS    X
J1DTXT1  DS    CL86
J1DTXT   EQU   J1DTXT1+6,80
J1DHLD   DS    CL80
J1DEND   EQU   *
J1TCLRE  EQU   *                   END OF DYNAMIC AREA
J1TSASIZ EQU   *-J1TPWA            SIZE OF DYNAMIC AREA
J1TMRMSG EQU   X'01'
J1TAUTO  EQU   X'02'
J1TGLBF  EQU   X'04'
J1TLOGN  EQU   X'08'
J1TTOP   EQU   X'10'
J1TUNSOL EQU   X'20'
J1TBUSY  EQU   X'40'
J1TRECD  EQU   X'80'
J1TSNA   EQU   X'01'
         MEND

