         MACRO
&NAME    WRTSMF BR='R2',                                               *
               SMFRNO='',                                              *
               DSRN=,                                                  *
               DATA='                                        '
         USING &BR,JRP400SX
         L     &BR,
         MVI   JRP4STAT,C'R'           SET TO RUN MODE
         MVI   JRP4DSRN,X'&DSRN'       SET SUB RECORD TYPE
         MVC   JRP4DAID(4),J1DAPPNM    SAVE JRP APPLICATION NAME
         MVC   JRP4DATA(40),=C'&DATA'
         LR    R1,&BR                  SET PARAMETER POINTER ASSRESS
         L     R15,J1DJRP4A            LOAD JRP400 EPA
         BALR  R14,R15                 RUN JRP400
         DROP  &BR
         MEND
