          MACRO
&NAME     DAYOFWK  &JDATE
           STM   2,3,&NAME.SAVE
           SR    0,0
           SR    1,1
           SR    3,3
           ICM   0,3,&JDATE+2    JUL DAY
           ST    0,&NAME.DW+4
           CVB   0,&NAME.DW
           IC    1,&JDATE+1       YEAR
            LA   2,&NAME.TAB
&NAME.TYR   DS   0H
            CLI  0(2),X'FF'
            BE    &NAME.SETZ
            CLM   1,1,0(2)    SAME YEAR
             BE   &NAME.FYR
             LA   2,2(2)   NEXT ENTRY
             B   &NAME.TYR
&NAME.FYR    DS    0H   MATCHING YEAR FOUND
             IC   3,1(2)  DAY OF NEW YEARS FOR GIVEN YEAR
             LR   1,0   SET DAY
             SR   0,0
             BCTR 1,0       -1
             D  0,=F'7'  DIVIDE BY 7
             LR  1,0     REMAINDER
             AR   1,3    ADD TO DAY OF NEW YEARS
             CH   1,=H'7'
              BNH  *+8
              SH  1,=H'7'
              LTR  1,1
              BNZ  *+8
              LA  1,1
             STC  1,&NAME.DYWK
            B   &NAME.WOUT
&NAME.SETZ  DS   0H
            MVI &NAME.DYWK,X'00'
            B   &NAME.WOUT
.* TABLE REPRESENTS DAY OF WEEK FOR JAN 1 IN GIVEN YEAR
.* (EG 1/1/93 IS ON A FRIDAY)
*NAME.TAB  DC X'92049306940795019602970498059906'
&NAME.TAB  DC X'000701020203030404050507060107020803090510061107'
           DC X'FFFF'
&NAME.DYWK  DS  X
&NAME.SAVE  DS   2F
&NAME.DW    DS   D
&NAME.WOUT   DS   0H
             LM   2,3,&NAME.SAVE
            SR   0,0
            IC   0,&NAME.DYWK
            MEND
