         MACRO
&NAME    IGGDEBD
*    03/20/73          LEVEL=01
DEBAVT   DSECT
**********************************************************************
*   APPENDAGE VECTOR TABLE FOR DEB. CONTAINS PTRS TO THE APPENDAGES  *
*   USED BY IOS.                                                     *
**********************************************************************
         SPACE 3
DEBEOEA  DS    A                        END OF EXTENT APPENDAGE
DEBSIOA  DS    A                        START I/O APPENDAGE
DEBPCIA  DS    A                        PROGRAM CONTROLLED INTERRUPT
DEBCEA   DS    A                        CHANNEL END APPENDAGE
DEBXCEA  DS    A                        ABNORMAL END APPENDAGE
         SPACE 5
*******************************************************
DEBEXT   DSECT
*                                       EXTENTION CONTAINS POINTERS
*                                       TO BE PROTECTED FROM PROBLEM
*                                       PROGRAM
DEBDCBFA DS    A                        DCB FIELD AREA ADDRESS
DEBPUT   DS    0A                       ADDR OF PUT MODULE
DEBGET   DS    0A                       ADDR OF GET MODULE
DEBDISAD DS    A                        ADDR OF PRIV MACRO MODULE
DEBRPSL  DS    0A                       ADDRESS OF RPS SIO MODULE
LOADEXT  EQU   *+4-DEBEXT               LENGTH OF LOAD EXTENSION
DEBWKPT4 DS    A                        SAME AS DCBWKPT4
DEBWKPT5 DS    A                        SAME AS DCBWKPT5
DEBFREED DS    0A                       ADDR OF DYN BUFF MODULE
DEBCEVEC DS    0BL24                    CHAN END VECT TBL CONSISTING OF
DEBCREAD DS    A                        READ
DEBRPSIO DS    0A                       ADDR OF SECONDARY RPS SIO APP
DEBCSETL DS    A                        SETL
DEBSIOA2 DS    0A                       ADDR OF SECONDARY SIO APP
BISAMEXT EQU   *+4-DEBEXT               EXTENSION LENGTH OF BISAM
DEBCWRIT DS    A                        WRITE
DEBCCHK  DS    A                        WRITE VAL. CHECK
DEBCREWT DS    A                        RE-WRITE
DEBCRECK DS    A                        RE-CHECK
DEBABVEC DS    0BL24                    ABNORMAL END VECT TBL CONSISTS
*                                       OF THE FOLLOWING-
DEBAREAD DS    A                        READ
DEBASETL DS    A                        SETL
DEBAWRIT DS    A                        WRITE
DEBACHK  DS    A                        WRITE VAL. CHECK
DEBAREWT DS    A                        RE-WRITE
DEBARECK DS    A                        RE-CHECK
DEBRPSS  DS    A                        SECONDARY SCAN SIO APP
SCANEXT  EQU   *-DEBEXT
W1CEVECT EQU   DEBCEVEC
W1CEREAD EQU   DEBCREAD
W1CESETL EQU   DEBCSETL
W1CEWRIT EQU   DEBCWRIT
W1CECHK  EQU   DEBCCHK
W1CEREWT EQU   DEBCREWT
W1CERECK EQU   DEBCRECK
W1ABVECT EQU   DEBABVEC
W1ABREAD EQU   DEBAREAD
W1ABSETL EQU   DEBASETL
W1ABWRIT EQU   DEBAWRIT
W1ABCHK  EQU   DEBACHK
W1ABREWT EQU   DEBAREWT
W1ABRECK EQU   DEBARECK
&NAME    DSECT
DEBNMSUB DS    0BL1                    = SUBRTNS LOADED BY OPEN
DEBTCBAD DS    A                       TCB POINTER
DEBAMLNG DS    0BL1                    LENGTH OF ACCESS METHOD SECTION
DEBDEBAD DS    A                       POINTER TO NEXT DEB IN TASK
DEBOFLGS DS    0BL1                    DATA SET STATUS FLAGS
*                                      B0.B1 01=DISP=OLD
*                                            10=DISP=MOD
*                                            11=DISP=NEW
*                                      B2 EOV OR EOF
*                                      B3 PARTIAL RELEASE
*                                      B4 DCB MODIFICATION
*                                      B5 SPLIT CYLINDER
*                                      B6 NON STANDARD LABELS
*                                      B7 MAG TAPE- USE REDUCED ERP
DEBIRBAD DS    A                       POINTER TO IRB FOR ASYNC EXIT
DEBOPATB DS    0BL1                    TYPE OF I/O
*                                      B0 SYSABEND OR SYSUDUMP DS
*                                      B1 0 (ALWAYS)
*                                      B2.B3 01=REREAD
*                                            11=LEAVE
*                                      B4.B5.B6.B7 0000=INPUT
*                                                  1111=OUTPUT
*                                                  0011=INOUT
*                                                  0111=OUTIN
*                                                  0001=RDBACK
*                                                  0100=UPDATE
DEBQSCNT DS    BL1                     PURGE QUIESCE COUNT
         DS    H                       RESERVED
DEBNMEXT DS    0BL1                    NUMBER OF EXTENTS CONSTRUCTED
DEBUSRPG DS    A                       AD OF 1ST IOB IN USR PURGE CHAIN
DEBPRIOR DS    0BL1                    DISPATCHING PRIORITY
DEBEDBAD DS    A                       POINTER TO PARMLIST OF PURGE ECB
DEBPROTG DS    0BL.4                   TASK PROTECTION FLAG
DEBDEBID DS    0BL.4'1111'             X'F' TO IDENTIFY AS A DEB
DEBDCBAD DS    A                       POINTER TO CORRESPONDING DCB
DEBEXSCL DS    0BL1                    SCALE FOR SIZE OF DEV SECTION
DEBAPPAD DS    A                       POINTER TO APPENDAGE VECTOR TBL
* ISAM DEPENDENT SECTION   (M=0 EXTENT NUMBER)
DEBNIEE  DS    0BL1                    = INDEX EXTENTS
DEBFIEAD DS    A                       ADDR OF 1ST INDEX EXTENT
DEBNPEE  DS    0BL1                    = PRIME DATA EXTENTS
DEBFPEAD DS    A                       ADDR OF 1ST PRIME DATA EXTENT
DEBNOEE  DS    0BL1                    = OVERFLOW EXTENTS
DEBFOEAD DS    A                       ADDR OF 1ST OVERFLOW EXTENT
DEBRPSID DS    0BL1                    RPS IDENTIFIERS FOR PRI,IX,OVFLO
*                                      B0 PRIME ON RPS
*                                      B1 INDEX ON RPS
*                                      B2 OVFLO ON RPS
*                                      B3 SIO APPENDAGE LOADED
*                                      B4-7 RESERVED
DEBEXPTR DS    A                        POINTER TO DEB EXTENTION
         ORG   &NAME+32
* DIRECT ACCESS DEVICE DEPENDENT SECTION
*        ADDRESS BY DEBAD + (M X (4 X EXSCL))
DEBDVMOD DS    0BL1                    DEVICE MODIFIER (FILE MASK)
DEBUCBAD DS    A                       POINTER TO UCB
DEBBINUM DS    BL2                     BB OF EXTENT
DEBSTRCC DS    BL2                     CYLINDER ADDR FOR START OF EXT
DEBSTRHH DS    BL2                     HEAD NUMBER FOR START OF EXTENT
DEBENDCC DS    BL2                     CYLINDER ADDR FOR END OF EXTENT
DEBENDHH DS    BL2                     HEAD NUMBER FOR END OF EXTENT
DEBNMTRK DS    BL2                     NUMBER OF TRACKS IN EXTENT
*                                      ********************************
         MEND
