     MACRO
&NAME   SCANARG &ARG
.* &ARG IS LITERAL TO BE SEARCHED FOR IN DATA WHOSE ADDR IS IN R1
.* AND LENGTH IN R0; IF SEARCH IS SUCCESSFUL, ADDRESS OF FOUND DATA
.* WILL BE IN R1
        LCLC  &SARG
        LCLA  &AL
&AL     SETA  K'&ARG-2
&SARG   SETC  '&ARG'(2,&AL)
        LA    1,OUTBUFF
        LA    0,121-0
        AR    0,1          END OF FIELD
&NAME.ARGS DS  0H
        CLC   0(&AL,1),=CL(&AL)'&SARG'
        BE    &NAME.ARGF
        LA    1,1(1)
        CR    1,0
        BL    &NAME.ARGS
        SR   1,1
        B   &NAME.ARGF
&NAME.ARGF  DS  0H
        LTR  1,1
        AGO    .MEND
.MEND   ANOP
        MEND
