 Assembler maintenance programs
To make the maintenance on our Assembler programs (modules) easier, we decided
to develop them in a structured and modular way.  When using 'BAL' and 'BALR'
instructions there is always a loss of general registers.  A simple solution for
this problem might be the use of the 'DOPROC' and 'ENDPROC' macros explained
below:
DOPROC MACRO:
         MACRO
&NAME    DOPROC  &SEC,&SECEX
         AIF   (T'&SEC EQ 'O').PRTMSG
         AIF   ('&SEC' EQ '?').PRTMSG
         AIF   (T'&SECEX EQ 'O').NOEXIT
&NAME    MVC   &SECEX+2(2),=S(*+10)
         BC    15,&SEC
         AGO   .END
.NOEXIT  ANOP
&NAME    BC    15,&SEC
         AGO   .END
.PRTMSG  MNOTE
'*******************************************************************'
         MNOTE '* LABEL     DOPROC BEGPROC,ENDPROC                 *'
         MNOTE '*                                                  *'
         MNOTE '* LABEL IS OPTIONAL.                               *'
         MNOTE '* 'ENDPROC' IS OPTIONAL. WHEN NOT SPECIFIED THERE  *'
         MNOTE '* WILL NOT BE GENERATED A RETURN ADDRESS AT THE END*'
         MNOTE '* OFF THE CALLED 'BEGPROC' PROCEDURE.              *'
         MNOTE '*                                                  *'
         MNOTE '* EXAMPLE:                                         *'
         MNOTE '* LABEL     DOPROC READ,ENDREAD                    *'
         MNOTE '*           -                                      *'
         MNOTE '*           -                                      *'
         MNOTE '* READ      EQU   *                                *'
         MNOTE '*           -                                      *'
         MNOTE '*           -                                      *'
         MNOTE '* ENDREAD   EQU   *                                *'
         MNOTE '*           ENDPROC                                *'
         MNOTE '*           OR                                     *'
         MNOTE '* ENDREAD   ENDPROC                                *'
         MNOTE
'*******************************************************************'
.END     MEND

ENDPROC MACRO:
         MACRO
&NAME    ENDPROC &A
         AIF ('0 EQ '?').PRTMSG
         AIR ('0 EQ 'EQU').NXTLINE
&NAME    DC    15,*+4
         AGO   .END
.NXTLINE ANOP
         DC    15,*+4
         AGO   .END
.PRTMSG  MNOTE
'*******************************************************************'
         MNOTE '* LABEL--ENDPROC---------------------------------- *'
         MNOTE '*    OR                                            *'
         MNOTE '* LABEL--EQU----*--------------------------------- *'
         MNOTE '* ----ENDPROC------------------------------------- *'
         MNOTE '* LABEL IS MANDATORY. (SEE DOPROC MACRO)           *'
         MNOTE
'*******************************************************************'
.END     MEND
To add the macros in an existing macro library use the command MACLIB ADD
EXISTING_LIBRARY DOPROC ENDPROC, or generate a new macro library by specifying
the MACLIB GEN NEW-LIBRARY DOPROC ENDPROC command.  When you are going to
assemble your programs, be sure that you use the global command to identify the
 macro library you want to be searched for: GLOBAL MACLIB LIB1 ... LIBN YOUR-
LIBRARY.
Jacques Rieval
Systems Programmer
Medicopharma (The Netherlands)     ) Xephon 1988





























































