         MACRO           CALL EURATOM AUTHORITY CONTROL MODULE SUPPLY.
&NAME   $EACM  &A
         LCLC  &NM
.*
.* $EACM MACRO : SEE EURATOM AUTHORITY CONTROL MODULE (AUTHCTL).
.* -------------
.*
.* AUTHOR :    P.A. MOINIL
.* --------    COMPUTING CENTRE
.*             J.R.C. - ISPRA ESTABLISHMENT
.*             21020 ISPRA (VA), ITALY
.*
         AIF   (T'&A EQ 'O').MIS
         AIF   (N'&SYSLIST GT 1).BAD
&NM      SETC  '&NAME'
         AIF   ('&A'(1,1) EQ '(').A
&NM      LA    1,&A
         AGO   .B
.A       AIF   ('&A(1)' EQ '1').C
&NM      LR    1,&A(1,1)
.B       ANOP
&NM      SETC  ''
.C       ANOP
&NM      LINK  EP=AUTHCTL
         MEXIT
.MIS     MNOTE 8,' MISSING OPERAND ********************************** '
         MEXIT
.BAD     MNOTE 8,' TOO MANY OPERANDS ******************************** '
         MEND
