         MACRO           HEADER EDIT.
&NAME   $HEDIT &STRING
.*
.* $HEDIT MACRO : HEADER EDIT.
.* --------------
.*
.* STRING OPERAND - TEXT WHICH IS EXPANDED AND BLOCKS PRINTED
.*                  BY GROUP OF 8 CHARACTERS (THE MAXIMUM STRING
.*                  LENGTH IS 40 CHARACTERS). IF THIS OPERAND IS
.*                  OMITTED, THE NAME ENTRY OF THE STATEMENT (THIS
.*                  NAME CAN BE REFERENCED AS LABEL IN THE ASSEMBLY),
.*                  IF PRESENT, OR THE CURRENT CSECT NAME, IS USED.
.*
.*                  NOTE - IF A BLANK AND/OR A COMMA MUST BE USED,
.*                         THE CHARACTER STRING MUST BE ENCLOSED
.*                         WITHIN APOSTROPHES. A DOUBLE APOSTROPHE
.*                         AND/OR AMPERSAND MUST BE USED TO GENERATE A
.*                         SINGLE ONE AS PART OF THE CHARACTER STRING.
.*
.* AUTHOR :    ORIGINAL 'HEDIT' MACRO EXTRACTED FROM 'MIM#3' PROGRAM.
.* --------    C.J. GOELZ
.*             GILBERT/COMMONWEALTH COS., INC.
.*             P.O. BOX 1498
.*             READING, PA 19603
.*             PHONE (215) 775-2600 EXT 2252
.*             SHARE CODE GAI
.*
.*             MODIFIED BY : P.A. MOINIL
.*                           COMPUTING CENTRE
.*                           J.R.C. - ISPRA ESTABLISHMENT
.*                           21020 ISPRA (VA), ITALY
.*
         LCLA  &I
         LCLA  &J
         LCLA  &K
         LCLA  &L
         LCLA  &M
         LCLA  &N
         LCLC  &NCS
         LCLC  &IM(50)
         LCLC  &FLD(64)
         LCLC  &STR(55)
         LCLC  &C(513)
.*
.*       BLOCK CHARACTERS TABLES.
.*
&IM(1)   SETC  '    *   '
&IM(2)   SETC  '   ***  '
&IM(3)   SETC  '  ** ** '
&IM(4)   SETC  ' **   **'
&IM(5)   SETC  ' *******'
&IM(6)   SETC  ' ****** '
&IM(7)   SETC  '  ***** '
&IM(8)   SETC  ' **     '
&IM(9)   SETC  ' ****   '
&IM(10)  SETC  ' *****  '
&IM(11)  SETC  '   *    '
&IM(12)  SETC  '  ****  '
&IM(13)  SETC  '   **   '
&IM(14)  SETC  '      **'
&IM(15)  SETC  ' **  ** '
&IM(16)  SETC  ' ** **  '
&IM(17)  SETC  ' *     *'
&IM(18)  SETC  ' *** ***'
&IM(19)  SETC  ' ** * **'
&IM(20)  SETC  ' ***  **'
&IM(21)  SETC  ' **** **'
&IM(22)  SETC  ' ** ****'
&IM(23)  SETC  ' **  ***'
&IM(24)  SETC  ' *  *  *'
&IM(25)  SETC  '  *   * '
&IM(26)  SETC  '     ** '
&IM(27)  SETC  '    **  '
&IM(28)  SETC  '  **    '
&IM(29)  SETC  '      * '
&IM(30)  SETC  '  *     '
&IM(31)  SETC  '     *  '
&IM(32)  SETC  '   * *  '
&IM(33)  SETC  '  *  *  '
&IM(34)  SETC  '   **** '
&IM(35)  SETC  ' *  *   '
&IM(36)  SETC  '    *  *'
&IM(37)  SETC  '  * * * '
&IM(38)  SETC  '   ** * '
&IM(39)  SETC  '       *'
&IM(40)  SETC  ' *      '
&IM(41)  SETC  '  ******'
&IM(42)  SETC  '   *  * '
&IM(43)  SETC  '  **   *'
&IM(44)  SETC  '  **  * '
&IM(45)  SETC  '  *  ** '
&IM(46)  SETC  ' *   ** '
&IM(47)  SETC  '  ** ** '
&IM(48)  SETC  '        '
&IM(49)  SETC  '        '
&IM(50)  SETC  '        '
.*
&C(1)    SETC  ' '
&C(2)    SETC  '&IM(50)'
&C(3)    SETC  '&IM(50)'
&C(4)    SETC  '&IM(50)'
&C(5)    SETC  '&IM(50)'
&C(6)    SETC  '&IM(50)'
&C(7)    SETC  '&IM(50)'
&C(8)    SETC  '&IM(50)'
&C(9)    SETC  '&IM(50)'
&C(10)   SETC  'A'
&C(11)   SETC  '&IM(1)'
&C(12)   SETC  '&IM(2)'
&C(13)   SETC  '&IM(3)'
&C(14)   SETC  '&IM(4)'
&C(15)   SETC  '&IM(4)'
&C(16)   SETC  '&IM(5)'
&C(17)   SETC  '&IM(4)'
&C(18)   SETC  '&IM(4)'
&C(19)   SETC  'B'
&C(20)   SETC  '&IM(6)'
&C(21)   SETC  '&IM(4)'
&C(22)   SETC  '&IM(4)'
&C(23)   SETC  '&IM(6)'
&C(24)   SETC  '&IM(4)'
&C(25)   SETC  '&IM(4)'
&C(26)   SETC  '&IM(4)'
&C(27)   SETC  '&IM(6)'
&C(28)   SETC  'C'
&C(29)   SETC  '&IM(41)'
&C(30)   SETC  '&IM(8)'
&C(31)   SETC  '&IM(8)'
&C(32)   SETC  '&IM(8)'
&C(33)   SETC  '&IM(8)'
&C(34)   SETC  '&IM(8)'
&C(35)   SETC  '&IM(8)'
&C(36)   SETC  '&IM(41)'
&C(37)   SETC  'D'
&C(38)   SETC  '&IM(6)'
&C(39)   SETC  '&IM(4)'
&C(40)   SETC  '&IM(4)'
&C(41)   SETC  '&IM(4)'
&C(42)   SETC  '&IM(4)'
&C(43)   SETC  '&IM(4)'
&C(44)   SETC  '&IM(4)'
&C(45)   SETC  '&IM(6)'
&C(46)   SETC  'E'
&C(47)   SETC  '&IM(6)'
&C(48)   SETC  '&IM(8)'
&C(49)   SETC  '&IM(8)'
&C(50)   SETC  '&IM(9)'
&C(51)   SETC  '&IM(8)'
&C(52)   SETC  '&IM(8)'
&C(53)   SETC  '&IM(8)'
&C(54)   SETC  '&IM(5)'
&C(55)   SETC  'F'
&C(56)   SETC  '&IM(5)'
&C(57)   SETC  '&IM(8)'
&C(58)   SETC  '&IM(8)'
&C(59)   SETC  '&IM(10)'
&C(60)   SETC  '&IM(8)'
&C(61)   SETC  '&IM(8)'
&C(62)   SETC  '&IM(8)'
&C(63)   SETC  '&IM(8)'
&C(64)   SETC  'G'
&C(65)   SETC  '&IM(7)'
&C(66)   SETC  '&IM(4)'
&C(67)   SETC  '&IM(8)'
&C(68)   SETC  '&IM(8)'
&C(69)   SETC  '&IM(23)'
&C(70)   SETC  '&IM(4)'
&C(71)   SETC  '&IM(4)'
&C(72)   SETC  '&IM(7)'
&C(73)   SETC  'H'
&C(74)   SETC  '&IM(4)'
&C(75)   SETC  '&IM(4)'
&C(76)   SETC  '&IM(4)'
&C(77)   SETC  '&IM(5)'
&C(78)   SETC  '&IM(4)'
&C(79)   SETC  '&IM(4)'
&C(80)   SETC  '&IM(4)'
&C(81)   SETC  '&IM(4)'
&C(82)   SETC  'I'
&C(83)   SETC  '&IM(12)'
&C(84)   SETC  '&IM(13)'
&C(85)   SETC  '&IM(13)'
&C(86)   SETC  '&IM(13)'
&C(87)   SETC  '&IM(13)'
&C(88)   SETC  '&IM(13)'
&C(89)   SETC  '&IM(13)'
&C(90)   SETC  '&IM(12)'
&C(91)   SETC  'J'
&C(92)   SETC  '&IM(14)'
&C(93)   SETC  '&IM(14)'
&C(94)   SETC  '&IM(14)'
&C(95)   SETC  '&IM(14)'
&C(96)   SETC  '&IM(14)'
&C(97)   SETC  '&IM(4)'
&C(98)   SETC  '&IM(4)'
&C(99)   SETC  '&IM(7)'
&C(100)  SETC  'K'
&C(101)  SETC  '&IM(4)'
&C(102)  SETC  '&IM(15)'
&C(103)  SETC  '&IM(16)'
&C(104)  SETC  '&IM(9)'
&C(105)  SETC  '&IM(9)'
&C(106)  SETC  '&IM(16)'
&C(107)  SETC  '&IM(15)'
&C(108)  SETC  '&IM(4)'
&C(109)  SETC  'L'
&C(110)  SETC  '&IM(8)'
&C(111)  SETC  '&IM(8)'
&C(112)  SETC  '&IM(8)'
&C(113)  SETC  '&IM(8)'
&C(114)  SETC  '&IM(8)'
&C(115)  SETC  '&IM(8)'
&C(116)  SETC  '&IM(8)'
&C(117)  SETC  '&IM(5)'
&C(118)  SETC  'M'
&C(119)  SETC  '&IM(17)'
&C(120)  SETC  '&IM(4)'
&C(121)  SETC  '&IM(18)'
&C(122)  SETC  '&IM(5)'
&C(123)  SETC  '&IM(19)'
&C(124)  SETC  '&IM(4)'
&C(125)  SETC  '&IM(4)'
&C(126)  SETC  '&IM(4)'
&C(127)  SETC  'N'
&C(128)  SETC  '&IM(4)'
&C(129)  SETC  '&IM(20)'
&C(130)  SETC  '&IM(20)'
&C(131)  SETC  '&IM(21)'
&C(132)  SETC  '&IM(22)'
&C(133)  SETC  '&IM(23)'
&C(134)  SETC  '&IM(23)'
&C(135)  SETC  '&IM(4)'
&C(136)  SETC  'O'
&C(137)  SETC  '&IM(7)'
&C(138)  SETC  '&IM(4)'
&C(139)  SETC  '&IM(4)'
&C(140)  SETC  '&IM(4)'
&C(141)  SETC  '&IM(4)'
&C(142)  SETC  '&IM(4)'
&C(143)  SETC  '&IM(4)'
&C(144)  SETC  '&IM(7)'
&C(145)  SETC  'P'
&C(146)  SETC  '&IM(6)'
&C(147)  SETC  '&IM(4)'
&C(148)  SETC  '&IM(4)'
&C(149)  SETC  '&IM(4)'
&C(150)  SETC  '&IM(6)'
&C(151)  SETC  '&IM(8)'
&C(152)  SETC  '&IM(8)'
&C(153)  SETC  '&IM(8)'
&C(154)  SETC  'Q'
&C(155)  SETC  '&IM(7)'
&C(156)  SETC  '&IM(4)'
&C(157)  SETC  '&IM(4)'
&C(158)  SETC  '&IM(4)'
&C(159)  SETC  '&IM(4)'
&C(160)  SETC  '&IM(22)'
&C(161)  SETC  '&IM(23)'
&C(162)  SETC  '&IM(7)'
&C(163)  SETC  'R'
&C(164)  SETC  '&IM(6)'
&C(165)  SETC  '&IM(4)'
&C(166)  SETC  '&IM(4)'
&C(167)  SETC  '&IM(4)'
&C(168)  SETC  '&IM(6)'
&C(169)  SETC  '&IM(16)'
&C(170)  SETC  '&IM(15)'
&C(171)  SETC  '&IM(4)'
&C(172)  SETC  'S'
&C(173)  SETC  '&IM(7)'
&C(174)  SETC  '&IM(4)'
&C(175)  SETC  '&IM(8)'
&C(176)  SETC  '&IM(7)'
&C(177)  SETC  '&IM(14)'
&C(178)  SETC  '&IM(14)'
&C(179)  SETC  '&IM(4)'
&C(180)  SETC  '&IM(7)'
&C(181)  SETC  'T'
&C(182)  SETC  '&IM(5)'
&C(183)  SETC  '&IM(13)'
&C(184)  SETC  '&IM(13)'
&C(185)  SETC  '&IM(13)'
&C(186)  SETC  '&IM(13)'
&C(187)  SETC  '&IM(13)'
&C(188)  SETC  '&IM(13)'
&C(189)  SETC  '&IM(13)'
&C(190)  SETC  'U'
&C(191)  SETC  '&IM(4)'
&C(192)  SETC  '&IM(4)'
&C(193)  SETC  '&IM(4)'
&C(194)  SETC  '&IM(4)'
&C(195)  SETC  '&IM(4)'
&C(196)  SETC  '&IM(4)'
&C(197)  SETC  '&IM(4)'
&C(198)  SETC  '&IM(7)'
&C(199)  SETC  'V'
&C(200)  SETC  '&IM(4)'
&C(201)  SETC  '&IM(4)'
&C(202)  SETC  '&IM(4)'
&C(203)  SETC  '&IM(4)'
&C(204)  SETC  '&IM(4)'
&C(205)  SETC  '&IM(3)'
&C(206)  SETC  '&IM(2)'
&C(207)  SETC  '&IM(1)'
&C(208)  SETC  'W'
&C(209)  SETC  '&IM(4)'
&C(210)  SETC  '&IM(4)'
&C(211)  SETC  '&IM(4)'
&C(212)  SETC  '&IM(4)'
&C(213)  SETC  '&IM(19)'
&C(214)  SETC  '&IM(5)'
&C(215)  SETC  '&IM(18)'
&C(216)  SETC  '&IM(25)'
&C(217)  SETC  'X'
&C(218)  SETC  '&IM(4)'
&C(219)  SETC  '&IM(4)'
&C(220)  SETC  '&IM(3)'
&C(221)  SETC  '&IM(2)'
&C(222)  SETC  '&IM(2)'
&C(223)  SETC  '&IM(3)'
&C(224)  SETC  '&IM(4)'
&C(225)  SETC  '&IM(4)'
&C(226)  SETC  'Y'
&C(227)  SETC  '&IM(4)'
&C(228)  SETC  '&IM(4)'
&C(229)  SETC  '&IM(4)'
&C(230)  SETC  '&IM(3)'
&C(231)  SETC  '&IM(2)'
&C(232)  SETC  '&IM(13)'
&C(233)  SETC  '&IM(13)'
&C(234)  SETC  '&IM(13)'
&C(235)  SETC  'Z'
&C(236)  SETC  '&IM(5)'
&C(237)  SETC  '&IM(14)'
&C(238)  SETC  '&IM(26)'
&C(239)  SETC  '&IM(27)'
&C(240)  SETC  '&IM(13)'
&C(241)  SETC  '&IM(28)'
&C(242)  SETC  '&IM(8)'
&C(243)  SETC  '&IM(5)'
&C(244)  SETC  '1'
&C(245)  SETC  '&IM(1)'
&C(246)  SETC  '&IM(13)'
&C(247)  SETC  '&IM(1)'
&C(248)  SETC  '&IM(1)'
&C(249)  SETC  '&IM(1)'
&C(250)  SETC  '&IM(1)'
&C(251)  SETC  '&IM(1)'
&C(252)  SETC  '&IM(2)'
&C(253)  SETC  '2'
&C(254)  SETC  '&IM(2)'
&C(255)  SETC  '&IM(25)'
&C(256)  SETC  '&IM(29)'
&C(257)  SETC  '&IM(29)'
&C(258)  SETC  '&IM(2)'
&C(259)  SETC  '&IM(30)'
&C(260)  SETC  '&IM(30)'
&C(261)  SETC  '&IM(7)'
&C(262)  SETC  '3'
&C(263)  SETC  '&IM(2)'
&C(264)  SETC  '&IM(25)'
&C(265)  SETC  '&IM(29)'
&C(266)  SETC  '&IM(27)'
&C(267)  SETC  '&IM(29)'
&C(268)  SETC  '&IM(25)'
&C(269)  SETC  '&IM(25)'
&C(270)  SETC  '&IM(2)'
&C(271)  SETC  '4'
&C(272)  SETC  '&IM(31)'
&C(273)  SETC  '&IM(27)'
&C(274)  SETC  '&IM(32)'
&C(275)  SETC  '&IM(33)'
&C(276)  SETC  '&IM(6)'
&C(277)  SETC  '&IM(31)'
&C(278)  SETC  '&IM(31)'
&C(279)  SETC  '&IM(31)'
&C(280)  SETC  '5'
&C(281)  SETC  '&IM(12)'
&C(282)  SETC  '&IM(30)'
&C(283)  SETC  '&IM(30)'
&C(284)  SETC  '&IM(12)'
&C(285)  SETC  '&IM(29)'
&C(286)  SETC  '&IM(25)'
&C(287)  SETC  '&IM(25)'
&C(288)  SETC  '&IM(2)'
&C(289)  SETC  '6'
&C(290)  SETC  '&IM(2)'
&C(291)  SETC  '&IM(25)'
&C(292)  SETC  '&IM(30)'
&C(293)  SETC  '&IM(12)'
&C(294)  SETC  '&IM(25)'
&C(295)  SETC  '&IM(25)'
&C(296)  SETC  '&IM(25)'
&C(297)  SETC  '&IM(2)'
&C(298)  SETC  '7'
&C(299)  SETC  '&IM(7)'
&C(300)  SETC  '&IM(29)'
&C(301)  SETC  '&IM(29)'
&C(302)  SETC  '&IM(31)'
&C(303)  SETC  '&IM(1)'
&C(304)  SETC  '&IM(1)'
&C(305)  SETC  '&IM(1)'
&C(306)  SETC  '&IM(1)'
&C(307)  SETC  '8'
&C(308)  SETC  '&IM(2)'
&C(309)  SETC  '&IM(25)'
&C(310)  SETC  '&IM(25)'
&C(311)  SETC  '&IM(2)'
&C(312)  SETC  '&IM(25)'
&C(313)  SETC  '&IM(25)'
&C(314)  SETC  '&IM(25)'
&C(315)  SETC  '&IM(2)'
&C(316)  SETC  '9'
&C(317)  SETC  '&IM(2)'
&C(318)  SETC  '&IM(25)'
&C(319)  SETC  '&IM(25)'
&C(320)  SETC  '&IM(25)'
&C(321)  SETC  '&IM(34)'
&C(322)  SETC  '&IM(29)'
&C(323)  SETC  '&IM(25)'
&C(324)  SETC  '&IM(2)'
&C(325)  SETC  '0'
&C(326)  SETC  '&IM(2)'
&C(327)  SETC  '&IM(25)'
&C(328)  SETC  '&IM(25)'
&C(329)  SETC  '&IM(25)'
&C(330)  SETC  '&IM(25)'
&C(331)  SETC  '&IM(25)'
&C(332)  SETC  '&IM(25)'
&C(333)  SETC  '&IM(2)'
&C(334)  SETC  '$'
&C(335)  SETC  '&IM(1)'
&C(336)  SETC  '&IM(7)'
&C(337)  SETC  '&IM(24)'
&C(338)  SETC  '&IM(35)'
&C(339)  SETC  '&IM(7)'
&C(340)  SETC  '&IM(36)'
&C(341)  SETC  '&IM(24)'
&C(342)  SETC  '&IM(7)'
&C(343)  SETC  '#'
&C(344)  SETC  '&IM(50)'
&C(345)  SETC  '&IM(42)'
&C(346)  SETC  '&IM(41)'
&C(347)  SETC  '&IM(42)'
&C(348)  SETC  '&IM(42)'
&C(349)  SETC  '&IM(41)'
&C(350)  SETC  '&IM(42)'
&C(351)  SETC  '&IM(50)'
&C(352)  SETC  '@'
&C(353)  SETC  '&IM(50)'
&C(354)  SETC  '&IM(50)'
&C(355)  SETC  '&IM(2)'
&C(356)  SETC  '&IM(25)'
&C(357)  SETC  '&IM(29)'
&C(358)  SETC  '&IM(38)'
&C(359)  SETC  '&IM(37)'
&C(360)  SETC  '&IM(32)'
&C(361)  SETC  ','
&C(362)  SETC  '&IM(50)'
&C(363)  SETC  '&IM(50)'
&C(364)  SETC  '&IM(50)'
&C(365)  SETC  '&IM(50)'
&C(366)  SETC  '&IM(13)'
&C(367)  SETC  '&IM(13)'
&C(368)  SETC  '&IM(1)'
&C(369)  SETC  '&IM(11)'
&C(370)  SETC  '.'
&C(371)  SETC  '&IM(50)'
&C(372)  SETC  '&IM(50)'
&C(373)  SETC  '&IM(50)'
&C(374)  SETC  '&IM(50)'
&C(375)  SETC  '&IM(50)'
&C(376)  SETC  '&IM(50)'
&C(377)  SETC  '&IM(13)'
&C(378)  SETC  '&IM(13)'
&C(379)  SETC  '('
&C(380)  SETC  '&IM(1)'
&C(381)  SETC  '&IM(11)'
&C(382)  SETC  '&IM(30)'
&C(383)  SETC  '&IM(30)'
&C(384)  SETC  '&IM(30)'
&C(385)  SETC  '&IM(30)'
&C(386)  SETC  '&IM(11)'
&C(387)  SETC  '&IM(1)'
&C(388)  SETC  ')'
&C(389)  SETC  '&IM(11)'
&C(390)  SETC  '&IM(1)'
&C(391)  SETC  '&IM(31)'
&C(392)  SETC  '&IM(31)'
&C(393)  SETC  '&IM(31)'
&C(394)  SETC  '&IM(31)'
&C(395)  SETC  '&IM(1)'
&C(396)  SETC  '&IM(11)'
&C(397)  SETC  '+'
&C(398)  SETC  '&IM(50)'
&C(399)  SETC  '&IM(50)'
&C(400)  SETC  '&IM(1)'
&C(401)  SETC  '&IM(1)'
&C(402)  SETC  '&IM(7)'
&C(403)  SETC  '&IM(1)'
&C(404)  SETC  '&IM(1)'
&C(405)  SETC  '&IM(50)'
&C(406)  SETC  '/'
&C(407)  SETC  '&IM(50)'
&C(408)  SETC  '&IM(39)'
&C(409)  SETC  '&IM(29)'
&C(410)  SETC  '&IM(31)'
&C(411)  SETC  '&IM(1)'
&C(412)  SETC  '&IM(11)'
&C(413)  SETC  '&IM(30)'
&C(414)  SETC  '&IM(40)'
&C(415)  SETC  ''''
&C(416)  SETC  '&IM(13)'
&C(417)  SETC  '&IM(13)'
&C(418)  SETC  '&IM(1)'
&C(419)  SETC  '&IM(11)'
&C(420)  SETC  '&IM(50)'
&C(421)  SETC  '&IM(50)'
&C(422)  SETC  '&IM(50)'
&C(423)  SETC  '&IM(50)'
&C(424)  SETC  '*'
&C(425)  SETC  '&IM(50)'
&C(426)  SETC  '&IM(50)'
&C(427)  SETC  '&IM(37)'
&C(428)  SETC  '&IM(2)'
&C(429)  SETC  '&IM(7)'
&C(430)  SETC  '&IM(2)'
&C(431)  SETC  '&IM(37)'
&C(432)  SETC  '&IM(50)'
&C(433)  SETC  '='
&C(434)  SETC  '&IM(50)'
&C(435)  SETC  '&IM(50)'
&C(436)  SETC  '&IM(50)'
&C(437)  SETC  '&IM(7)'
&C(438)  SETC  '&IM(50)'
&C(439)  SETC  '&IM(7)'
&C(440)  SETC  '&IM(50)'
&C(441)  SETC  '&IM(50)'
&C(442)  SETC  ':'
&C(443)  SETC  '&IM(50)'
&C(444)  SETC  '&IM(50)'
&C(445)  SETC  '&IM(13)'
&C(446)  SETC  '&IM(13)'
&C(447)  SETC  '&IM(50)'
&C(448)  SETC  '&IM(13)'
&C(449)  SETC  '&IM(13)'
&C(450)  SETC  '&IM(50)'
&C(451)  SETC  ';'
&C(452)  SETC  '&IM(50)'
&C(453)  SETC  '&IM(13)'
&C(454)  SETC  '&IM(13)'
&C(455)  SETC  '&IM(50)'
&C(456)  SETC  '&IM(13)'
&C(457)  SETC  '&IM(13)'
&C(458)  SETC  '&IM(1)'
&C(459)  SETC  '&IM(11)'
&C(460)  SETC  '-'
&C(461)  SETC  '&IM(50)'
&C(462)  SETC  '&IM(50)'
&C(463)  SETC  '&IM(50)'
&C(464)  SETC  '&IM(50)'
&C(465)  SETC  '&IM(7)'
&C(466)  SETC  '&IM(50)'
&C(467)  SETC  '&IM(50)'
&C(468)  SETC  '&IM(50)'
&C(469)  SETC  '?'
&C(470)  SETC  '&IM(2)'
&C(471)  SETC  '&IM(25)'
&C(472)  SETC  '&IM(29)'
&C(473)  SETC  '&IM(31)'
&C(474)  SETC  '&IM(1)'
&C(475)  SETC  '&IM(1)'
&C(476)  SETC  '&IM(50)'
&C(477)  SETC  '&IM(1)'
&C(478)  SETC  '%'
&C(479)  SETC  '&IM(50)'
&C(480)  SETC  '&IM(43)'
&C(481)  SETC  '&IM(44)'
&C(482)  SETC  '&IM(31)'
&C(483)  SETC  '&IM(1)'
&C(484)  SETC  '&IM(11)'
&C(485)  SETC  '&IM(45)'
&C(486)  SETC  '&IM(46)'
&C(487)  SETC  '|'
&C(488)  SETC  '&IM(1)'
&C(489)  SETC  '&IM(1)'
&C(490)  SETC  '&IM(1)'
&C(491)  SETC  '&IM(1)'
&C(492)  SETC  '&IM(1)'
&C(493)  SETC  '&IM(1)'
&C(494)  SETC  '&IM(50)'
&C(495)  SETC  '&IM(1)'
&C(496)  SETC  '&&'
&C(497)  SETC  '&IM(50)'
&C(498)  SETC  '&IM(13)'
&C(499)  SETC  '&IM(33)'
&C(500)  SETC  '&IM(33)'
&C(501)  SETC  '&IM(13)'
&C(502)  SETC  '&IM(37)'
&C(503)  SETC  '&IM(33)'
&C(504)  SETC  '&IM(38)'
&C(505)  SETC  '"'
&C(506)  SETC  '&IM(47)'
&C(507)  SETC  '&IM(47)'
&C(508)  SETC  '&IM(42)'
&C(509)  SETC  '&IM(33)'
&C(510)  SETC  '&IM(50)'
&C(511)  SETC  '&IM(50)'
&C(512)  SETC  '&IM(50)'
&C(513)  SETC  '&IM(50)'
.*
         AIF   ('&NAME' EQ '').NONM
         SPACE 1
&NAME    DS    0H
.NONM    ANOP
&K       SETA  K'&STRING
         AIF   (&K GT 55).LERR
&M       SETA  1
         AIF   (&K GT 0).COPY3
&K       SETA  K'&NAME
         AIF   (&K GT 0).COPY2
&NCS     SETC  '&SYSECT'
&K       SETA  K'&NCS
.COPY1   ANOP
&STR(&M) SETC  '&NCS'(&M,1)
&M       SETA  &M+1
         AIF   (&M LE &K).COPY1
         AGO   .COPYD
.COPY2   ANOP
&STR(&M) SETC  '&NAME'(&M,1)
&M       SETA  &M+1
         AIF   (&M LE &K).COPY2
         AGO   .COPYD
.COPY3   ANOP
&STR(&M) SETC  '&STRING'(&M,1)
&M       SETA  &M+1
         AIF   (&M LE &K).COPY3
.COPYD   ANOP
&M       SETA  0
         AIF   ('&STR(1)' NE '''').EDIT
         AIF   (&K EQ 1).IERR
&M       SETA  1
&I       SETA  &M
         AGO   .COMP
.EDIT    AIF   (&M EQ &K).CNTL
&M       SETA  &M+1
&I       SETA  &M
         AIF   ('&STR(&M)' EQ '&&'(1,1)).TEST
         AIF   ('&STR(&M)' NE '''').EDIT
         AIF   (&M EQ &K).ELIM
         AIF   ('&STR(&M+1)' NE '''').PERR
         AGO   .PACK
.TEST    AIF   (&M EQ &K).MERR
         AIF   ('&STR(&M+1)' NE '&&'(1,1)).MERR
.PACK    ANOP
&M       SETA  &M+1
&I       SETA  &M
.COMP    ANOP
&STR(&I) SETC  '&STR(&I+1)'
&I       SETA  &I+1
         AIF   (&I LT &K).COMP
&STR(&K) SETC  ' '
&K       SETA  &K-1
&M       SETA  &M-1
         AGO   .EDIT
.ELIM    ANOP
&STR(&K) SETC  ' '
&K       SETA  &K-1
.CNTL    AIF   (&K EQ 0).IERR
         AIF   (&K GT 40).TERR
&M       SETA  0
.AGIN    ANOP
&I       SETA  1
&L       SETA  &K-&M
         AIF   (&L LE 0).DONE
         AIF   (&L LE 8).CKL
&L       SETA  8
.CKL     AIF   (&L GT 6).SETL
&J       SETA  8
         AIF   (&L GT 4).FILT
&J       SETA  16
         AIF   (&L GT 2).FILT
&J       SETA  24
.FILT    AIF   (&I GT &J).SETL
&FLD(&I) SETC  '&C(2)'
&I       SETA  &I+1
         AGO   .FILT
.SETL    ANOP
&L       SETA  &L+&M
.LOOP    AIF   (&M EQ &L).FINI
&M       SETA  &M+1
&J       SETA  1
&N       SETA  9
.MTCH    AIF   ('&STR(&M)' EQ '&C(&J)'(1,1)).GO
&J       SETA  &J+9
&N       SETA  &J+8
         AIF   (&J LT 513).MTCH
&J       SETA  1
&N       SETA  9
.GO      AIF   (&J EQ &N).LOOP
&J       SETA  &J+1
&FLD(&I) SETC  '&C(&J)'
&I       SETA  &I+1
         AGO   .GO
.FINI    AIF   (&I GT 64).DOIT
&FLD(&I) SETC  ' '
&I       SETA  &I+1
         AGO   .FINI
.DOIT    ANOP
         SPACE 2
         MNOTE *,'    &FLD(1)&FLD(9)&FLD(17)&FLD(25)&FLD(33)&FLD(41)&FL1
               D(49)&FLD(57)'
         MNOTE *,'    &FLD(2)&FLD(10)&FLD(18)&FLD(26)&FLD(34)&FLD(42)&F1
               LD(50)&FLD(58)'
         MNOTE *,'    &FLD(3)&FLD(11)&FLD(19)&FLD(27)&FLD(35)&FLD(43)&F1
               LD(51)&FLD(59)'
         MNOTE *,'    &FLD(4)&FLD(12)&FLD(20)&FLD(28)&FLD(36)&FLD(44)&F1
               LD(52)&FLD(60)'
         MNOTE *,'    &FLD(5)&FLD(13)&FLD(21)&FLD(29)&FLD(37)&FLD(45)&F1
               LD(53)&FLD(61)'
         MNOTE *,'    &FLD(6)&FLD(14)&FLD(22)&FLD(30)&FLD(38)&FLD(46)&F1
               LD(54)&FLD(62)'
         MNOTE *,'    &FLD(7)&FLD(15)&FLD(23)&FLD(31)&FLD(39)&FLD(47)&F1
               LD(55)&FLD(63)'
         MNOTE *,'    &FLD(8)&FLD(16)&FLD(24)&FLD(32)&FLD(40)&FLD(48)&F1
               LD(56)&FLD(64)'
         AGO   .AGIN
.LERR    MNOTE 8,' OPERAND TOO LONG (MAX. = 55 CARD COLUMNS) ******** '
         AGO   .DONE
.MERR    MNOTE 8,' ODD NUMBER OF AMPERSANDS IN OPERAND ************** '
         AGO   .DONE
.PERR    MNOTE 8,' ODD NUMBER OF APOSTROPHES IN OPERAND ************* '
         AGO   .DONE
.IERR    MNOTE 8,' INVALID (NULL) OPERAND *************************** '
         AGO   .DONE
.TERR    MNOTE 8,' TEXT TOO LONG (MAX. = 40 CHATACTERS) ************* '
.DONE    SPACE 2
         MEND
