         MACRO           ICFS PROCESSING INDICATORS.
&NAME   $ICFSW &FL
         LCLC  &NCS
.*
.* AUTHOR :    P.A. MOINIL
.* --------    COMPUTING CENTRE
.*             J.R.C. - ISPRA ESTABLISHMENT
.*             21020 ISPRA (VA), ITALY
.*
         AIF   ('&NAME' EQ '').A
&NCS     SETC  '&NAME'
         AGO   .B
.A       ANOP
&NCS     SETC  'ICFSW'
.B       AIF   (T'&FL EQ 'O').C
&NCS     DC    AL1(&FL) .          ICFS - PROCESSING INDICATORS
         AGO   .D
.C       ANOP
&NCS     DC    XL1'0' .            ICFS - PROCESSING INDICATORS
.D       ANOP
ICFKEY0  EQU   X'80' .             ALREADY SUPERVISOR MODE, KEY 0
ICFAUTH  EQU   X'40' .             ALREADY AUTHORIZED
ICFMSPW  EQU   X'01' .             CATALOG MASTER PASSWORD REQUEST
         MEND
