         MACRO      TSO EASY-WAY OF CODING - WORK-AREAS
&NAME   $TEW$WA     &DUMMY
.* AUTHOR :    MOINIL P.A.
.* --------    COMPUTING CENTRE (TP 361)
.*             J.R.C. - ISPRA ESTABLISHMENT
.*             21020 ISPRA (VA), ITALY
         GBLB  &TEWECSC,&TEWECST
         GBLB  &TEWMRSW
         GBLB  &TEWPGSW,&TEWPGSG,&TEWPGSP
         GBLB  &TEWSCSW
         GBLB  &TEWPPSW
*- - - - - - - - - - - - - - - - - - - - - - --> Work-Areas Start <--*
         AIF   ('&NAME' EQ '').A
&NAME    EQU   *
.A       ANOP
#TSCPPL  DC    A(*-*)            . CPPL address
*                                . TSO flag from EXTRACT
#TSFLAG  DC    XL1'0'            .      X'00' = not TSO
#TSFRUN  EQU   X'80'             .      X'80' = TSO
#TSXLS  EXTRACT *-*,'S',MF=L     .      EXTRACT List
#TSXLSA  DS    0F                .      EXTRACT responses
         AIF   (NOT &TEWECST).A1
#TSTIOT  DC    A(*-*)            .      TIOT address
.A1      AIF   (NOT &TEWECSC).A2
#TSCOMM  DC    A(*-*)            .      COMMunication address
.A2      ANOP
#TSTSOF  DC    A(*-*)            .      TSO-flag address
#TSPSCB  DC    A(*-*)            .      PSCB address
#TSXLSL  EQU   *-#TSXLS          . Length
         AIF   (NOT &TEWMRSW).B
#TSSREGM DC    F'0'              . Save R14 for MSG
.B       AIF   (NOT &TEWPGSW).C
#TSSREGR DC    F'0'              . Save R14 for PUTLINE/GETLINE
#TSSREGS DC    F'0'              . Save R2 for PUTLINE/GETLINE
#TSECB   DC    F'0'              . ECB for PUTLINE/GETLINE
#TSIOPL  DC    0F'0',(IOPLLEN)X'0' I-O Parm List for PUTLINE/GETLINE
         AIF   (NOT &TEWPGSG).B1
&TEWSCSW SETB  0
#TSIBSP  DC    3F'0'             . GETLINE Input Buffer Scan Pointers
#TSGTPB  DC    0F'0',(GTPBLEN)X'0' GETLINE Parm Block
.B1      AIF   (NOT &TEWPGSP).B2
#TSPTPB  DC    0F'0',(PTPBLEN)X'0' PUTLINE Parm Block
.B2      ANOP
#TSMWRK  EQU   #TSMCTL,84        . PUTLINE/GETLINE work use
#TSMCTL  DC    F'0'              .      Control word
#TSMOUT  DC    CL80' '           .      Text
.C       AIF   (NOT &TEWSCSW).D
#TSIBSP  DC    3F'0'             . COMMAND Input Buffer Scan Pointers
.D       AIF   (NOT &TEWPPSW).E
#TSPPL   DC    0F'0',(PPLLEN)X'0'  PARSE Parm Block
#TSECBS  DC    F'0'
#TSANSW  DC    A(0)              . PDL address
#TSPPLL  EQU   *-#TSPPL          . Length
.E       ANOP
*- - - - - - - - - - - - - - - - - - - - - - - --> Work-Areas End <--*
         MEND
