         MACRO      TSO EASY-WAY OF CODING - DSECT'S
&NAME   $TEW$DS     &CVT=NO,&TIOT=NO,&VCPL=NO
.* AUTHOR :    MOINIL P.A.
.* --------    COMPUTING CENTRE (TP 361)
.*             J.R.C. - ISPRA ESTABLISHMENT
.*             21020 ISPRA (VA), ITALY
         GBLB  &TEWECSC,&TEWECST
         GBLB  &TEWPGSW,&TEWPGSG,&TEWPGSP
         GBLB  &TEWPPSW,&TEWPPUW
         AIF   ('&NAME' EQ '').A
         MNOTE 4,' LABEL (NAME) NOT EXPECTED ************************ '
.A       IKJCPPL
CPPLLEN  EQU   *-CPPL
         IKJPSCB
PSCBLEN  EQU   *-PSCB
         IKJEBECA
         AIF   (NOT &TEWECSC).B
CIBDSECT DSECT
CIB     IEZCIB
.B       AIF   (&TEWECST).B1
         AIF   ('&TIOT' NE 'YES').C
.B1      ANOP
TIODSECT DSECT
        IEFTIOT1
.C       AIF   (NOT &TEWPGSW).E
        IKJIOPL
IOPLLEN  EQU   *-IOPL
         AIF   (NOT &TEWPGSP).D
        IKJPTPB
PTPBLEN  EQU   *-PTPB
.D       AIF   (NOT &TEWPGSG).E
        IKJGTPB
GTPBLEN  EQU   *-GTPB
.E       AIF   (&TEWPPSW).E1
         AIF   ('&CVT' NE 'YES').E2
.E1     CVT    DSECT=YES,LIST=YES
         AIF   (NOT &TEWPPSW).E2
        IKJPPL
PPLLEN   EQU   *-PPL
         AIF   (&TEWPPUW).E3
.E2      AIF   ('&VCPL' NE 'YES').END
.E3      SPACE 1
VCPL     DSECT ,              VALIDITY CHECK PARAMETER LIST
PDEADR   DS    A                   --> PDE BUILT BY IKJPARS
USERWORD DS    A                   USER SUPPLIED VALUE (FROM PPLUWA)
VALMSG   DC    X'FF000000'         2ND-LVL MSG PTR (FEEDBACK FIELD)
VCPLLEN  EQU   *-VCPL              LENGTH
.END     MEND
