         MACRO           EURATOM AUTHORIZED SVC.
&NAME   $TREQ  &R=
.*
.* $TREQ MACRO : EURATOM TIMES REQUESTS.
.* -------------
.*
.* AUTHOR :    P.A. MOINIL
.* --------    COMPUTING CENTRE
.*             J.R.C. - ISPRA ESTABLISHMENT
.*             21020 ISPRA (VA), ITALY
.*
&NAME    XR    0,0
         AIF   ('&R' NE 'CL').A
         LA    1,1
         AGO   .E
.A       AIF   ('&R' NE 'CU').B
         LA    1,2
         AGO   .E
.B       AIF   ('&R' NE 'SL').C
         LA    1,3
         AGO   .E
.C       AIF   ('&R' NE 'SU').D
         LA    1,4
         AGO   .E
.D       LR    1,0
.E       BCTR  0,0
         SVC   ###                 SEND REQUEST.
         MEND
