         MACRO           CALL VTTCAM SUPPLY.
&NAME   $VTTCAM     &DUMMY
.*
.* $VTTCAM MACRO : CALL VTTCAM SUPPLY (SEE VTTCAM).
.* -------------
.*
.* AUTHOR :    N. RAVARANI
.* --------    COMPUTING CENTRE
.*             J.R.C. - ISPRA ESTABLISHMENT
.*             21020 ISPRA (VA), ITALY
.*
&NAME    L     15,=V(VTTCAM)       LOAD REG. 15 WITH ENTRY.
         BASR  14,15               BRANCH TO ENTRY POINT.
         MEND
