         MACRO           DEFINE FSRTN OPTIONS SUPPLY.
&NAME   @FSO   &DUMMY
.*
.* @FSO MACRO : DEFINE FSRTN OPTIONS SUPPLY (SEE FSRTN).
.* ------------
.*
.* AUTHOR :    P.A. MOINIL
.* --------    COMPUTING CENTRE
.*             J.R.C. - ISPRA ESTABLISHMENT
.*             21020 ISPRA (VA), ITALY
.*
&NAME    DC    XL1'0'
FSFULL   EQU   X'00'               TPUT/TGET
FSSKIP   EQU   X'01'               SKIP TGET, ONLY TPUT
FSSNAP   EQU   X'80'               SNAP TGET REPLY
FSEXIT   EQU   X'FF'               EXIT/TERMINATE FULLSCREEN
         MEND
