         MACRO           CALL FSRTNR SUPPLY.
&NAME   @FSR   &DUMMY
.*
.* @FSR MACRO : CALL FSRTNR SUPPLY (SEE FSRTN).
.* ------------
.*
.* AUTHOR :    P.A. MOINIL
.* --------    COMPUTING CENTRE
.*             J.R.C. - ISPRA ESTABLISHMENT
.*             21020 ISPRA (VA), ITALY
.*
&NAME    L     15,=V(FSRTNR)       LOAD REG. 15 WITH ENTRY.
         BASR  14,15               BRANCH TO ENTRY POINT.
         MEND
