         MACRO           DEFINE A SYMBOL.
&NAME    NULL       &DUMMY
.*
.* AUTHOR :    P.A. MOINIL
.* --------    COMPUTING CENTRE
.*             J.R.C. - ISPRA ESTABLISHMENT
.*             21020 ISPRA (VA), ITALY
.*
&NAME    DS    0H
         MEND
