)ATTR
  @ TYPE(OUTPUT) INTENS(LOW)
)BODY
%DAY ------------------------  MONTH table display  ----------------------------
%COMMAND INPUT ===>_OPT                                    +  %SCROLL ===>_AMTL+
+
+
%      KEY+(Month number)      %VALUE+(Month name)
+
)MODEL
      @Z                       @Z
)INIT
  .HELP = PAJTDAYS
  &VARS = '(N12 MONNAME)'
  &AMTL = HALF
  &OPT  = ' '
)END
