)ATTR
  @ TYPE(OUTPUT) INTENS(LOW)
)BODY
%DAY -----------------------  WEEKDAY table display  ---------------------------
%COMMAND INPUT ===>_OPT                                    +  %SCROLL ===>_AMTL+
+
+
%      KEY+(Day number)        %VALUE+(Day name)
+
)MODEL
      @Z                       @Z
)INIT
  .HELP = PAJTDAYS
  &VARS = '(N7 DAYNAME)'
  &AMTL = HALF
  &OPT  = ' '
)END
