         MACRO           AUTHORIZATION OFF.
&NAME    RESAUTH    &DUMMY
.*
.* AUTHOR :    P.A. MOINIL
.* --------    COMPUTING CENTRE
.*             J.R.C. - ISPRA ESTABLISHMENT
.*             21020 ISPRA (VA), ITALY
.*
&NAME    XR    0,0                 SET AUTHORIZATION OFF.
         SVC   ###                 SEND REQUEST.
         MEND
