         MACRO           PROBLEM MODE - AUTHORIZATION OFF.
&NAME    RESETKEY   &DUMMY
.*
.* AUTHOR :    P.A. MOINIL
.* --------    COMPUTING CENTRE
.*             J.R.C. - ISPRA ESTABLISHMENT
.*             21020 ISPRA (VA), ITALY
.*
&NAME   MODESET KEY=NZERO,MODE=PROB RE-ENTER PROBLEM MODE.
        RESAUTH ,                  SET AUTHORIZATION OFF.
         MEND
