         MACRO           AUTHORIZATION ON.
&NAME    SETAUTH    &DUMMY
.*
.* AUTHOR :    P.A. MOINIL
.* --------    COMPUTING CENTRE
.*             J.R.C. - ISPRA ESTABLISHMENT
.*             21020 ISPRA (VA), ITALY
.*
&NAME    LA    0,1                 SET AUTHORIZATION ON.
         SVC   ###                 SEND REQUEST.
         MEND
