         MACRO           AUTHORIZATION ON - SUPERVISOR MODE.
&NAME    ZEROKEY    &DUMMY
.*
.* AUTHOR :    P.A. MOINIL
.* --------    COMPUTING CENTRE
.*             J.R.C. - ISPRA ESTABLISHMENT
.*             21020 ISPRA (VA), ITALY
.*
&NAME   SETAUTH ,                  SET AUTHORIZATION ON.
        MODESET KEY=ZERO,MODE=SUP  ENTER SUPERVISOR MODE.
         MEND
