***********************************************************************
*                                                                     *
* ZIL Version 1.3 (c) 1989 The Charles Stark Draper Laboratory Inc.   *
*                     All rights reserved.                            *
*                                                                     *
***********************************************************************
         MACRO
&NAME    INSYS
&NAME    OI    ZLCIFLGS,ZLCISYS    Indicate non-ZIL code running
         MEND
         MACRO
&NAME    OUTSYS
&NAME    NI    ZLCIFLGS,255-ZLCISYS Indicate non-ZIL code running
         TM    ZLCIFLGS,ZLCIATTN    If attention interrupt occurred
         BOR   #13                  then go to handle it
         MEND
         TITLE 'TSO - BUILT-IN ZIL 1.3 SUBROUTINE'
***********************************************************************
* TSO TAKES AN &REST ARG - LIST OF ATOMS TO BE CONCATENATED INTO A    *
* SINGLE CHARACTER STRING, WHICH IS THEN EXECUTED AS A TSO COMMAND.   *
*  SPECIFICATION OF AN ATOM OR OF A LIST CONTAINING NESTED LISTS IS   *
*  ERRONEOUS AND WILL BE FLAGGED AS AN ERROR.                         *
*                                                                     *
* TSO RETURNS A FIXNUM CONTAINING THE RETURN CODE AS RETURNED BY      *
* THE TSO COMMAND INVOKED.                                            *
*                                                                     *
* THIS ROUTINE IS NOT RECURSIVE AND USES NO EXTRA STACK SPACE.        *
***********************************************************************
*                                                                     *
* ZILADMP IS CALLED TO DUMP EACH ATOM IN THE LIST INTO OUR WORK AREA. *
*                                                                     *
***********************************************************************
*                                                                     *
* 01/27/88 - CHANGED TO INVOKE TSO COMMAND ITSELF RATHER THAN USING   *
*            THE DRAPER "XCLIST" UTILITY.                             *
*                                                                     *
* 05/02/89 - TSO/E Version 2 support.                                 *
*                                                                     *
***********************************************************************
         GBLB  &ZILXA,&ZILTSO
         #ZSYS ,
         SPACE
TSO      #ZBEG MINARGS=0,MAXARGS=0,RESTARG=T,NAME='TSO'
         #ZPDS 16                  DEFINE STACK SIZE
         #ZSAV ,                   SAVE REGISTERS
         SPACE
         L     #6,0(,#11)          GET &REST ARGUMENT
         LA    #5,4                INIT LENGTH REQUIRED SO FAR TO 4
*                                  (for command buffer prefix)
LOOP     DS    0H
         CR    #6,#10              IF END OF LIST OR NULL LIST
         BE    NOMORE              THEN END LOOP
         L     #2,##CAR(,#6)       GET ATOM (ARG 1 TO TSO)
         TM    ##TYPE(#2),##ATOM   IF IT'S NOT AN ATOM
         BZ    BADLIST             THEN ERROR
         TM    ##TYPE(#2),##VEC    IF IT'S SOME KIND OF VECTOR
         BO    BADLIST             THEN ERROR
         L     #15,ZLCADMP         GET ADDRESS OF ZILADMP
         LR    #1,#10              SET #1 FOR ZILADMP
         #BASR #14,#15             CALL ZILADMP TO DUMP ATOM
         LR    #7,#1               SAVE ADDRESS OF DUMPED ATOM
         LTR   #4,#0               GET LENGTH OF DUMPED ATOM
         BNP   AFTMOVE             IF ZERO LENGTH, SKIP THIS ONE
         AR    #0,#5               GET DUMPED-ATOM LENGTH PLUS TOTAL
         C     #0,ZLCWALEN         IF EXCEEDS CURRENT WORKAREA LENGTH
         BNH   LENOK               THEN...
*
* (1) GETMAIN A NEW WORKAREA WHOSE SIZE IS >= #0.
* (2) COPY CONTENTS OF OLD WORKAREA TO THE NEW WORKAREA, LENGTH = #5.
* (3) FREEMAIN THE OLD WORKAREA.
*
* #0 = TOTAL LENGTH NEEDED SO FAR, INCLUDING DUMPED-BUT-NOT-ADDED-YET
* #1 = NOT IN USE
* #2 = NOT IN USE, WILL CONTAIN NEW WORK AREA LENGTH
* #3 = NOT IN USE, WILL CONTAIN NEW WORK AREA ADDRESS
* #4 = LENGTH OF DUMPED ATOM TEXT THAT WE WANT TO ADD ON
* #5 = TOTAL LENGTH DUMPED SO FAR, NOT INCLUDING THIS STUFF
* #6 = ADDRESS OF THE SUBLIST CURRENTLY BEING PROCESSED
* #7 = ADDRESS OF DUMPED ATOM TEXT THAT WE WANT TO ADD ON
*
         LR    #2,#0                SAVE LENGTH TO BE NEEDED
         LA    #2,7(,#2)            GET A LARGER WORK AREA
         N     #2,=X'FFFFFFF8'      ROUNDED UP TO MULTIPLE OF 8
         LR    #0,#2                SAVE THE NEW WORK AREA LENGTH
         #GETMAIN RC,LV=(0),LOC=BELOW GET A NEW WORK AREA
         LTR   #15,#15              IF GETMAIN FAILED
         BNZ   ERROR3               THEN ERROR - NOT ENOUGH STORAGE
         LR    #3,#1                SAVE NEW WORKAREA ADDRESS
         ICM   #14,15,ZLCWA         #14 = ADDRESS OF OLD AREA
         BZ    NOFREE               IF NONE, THEN SKIP MOVE & FREE
         LR    #0,#3                #0 = ADDRESS OF NEW AREA
         LR    #1,#5                #1 = LENGTH OF DUMPED TEXT
         LR    #15,#5               #15 = LENGTH OF DUMPED TEXT
         MVCL  #0,#14               COPY DATA FROM OLD AREA TO NEW AREA
         L     #1,ZLCWA             GET CURRENT WORK AREA ADDRESS
         L     #0,ZLCWALEN          GET CURRENT WORK AREA LENGTH
         FREEMAIN R,LV=(0),A=(1)    FREE THE OLD WORK AREA
NOFREE   DS    0H
         ST    #3,ZLCWA             SET NEW ZIL WORKAREA ADDRESS
         ST    #2,ZLCWALEN          SET NEW ZIL WORKAREA LENGTH
         SPACE 1
LENOK    DS    0H                  OTHERWISE - STILL ROOM
         L     #0,ZLCWA            WORKAREA ADDRESS + WORK AREA LENGTH
         AR    #0,#5               POINTS TO WHERE TO MOVE DUMPED ATOM
         LR    #1,#4               SOURCE LENGTH = DUMPED ATOM LENGTH
         LR    #15,#4              TARGET LENGTH = DUMPED ATOM LENGTH
         LR    #14,#7              SOURCE ADDRESS = WHERE DUMPED ATOM
         MVCL  #0,#14              MOVE DUMPED ATOM TO WORK AREA
         AR    #5,#4               INCREMENT TOTAL LENGTH SO FAR
AFTMOVE  DS    0H
         L     #6,##CDR(,#6)       GET REST OF LIST
         B     LOOP                CONTINUE.
NOMORE   DS    0H                  LIST HAS BEEN PROCESSED
*
* CHECK THAT THE ARGUMENT IS NOT LONGER THAN 32K.
*
         L     #1,ZLCWA            GET ADDRESS OF COMMAND WORK AREA
         CH    #5,=H'32767'        IF BUFFER LENGTH TOO LONG FOR TSO
         BH    TOOLONG             THEN ERROR
         SPACE
* To solve problem of single % picking up residual byte afterwards,
* we blank the byte following the end of the active buffer.
         SPACE
         C     #5,ZLCWALEN         Do only if active length is less
         BNL   NONONONO             than length of buffer.
         LA    #15,0(#5,#1)        Point to end of buffer
         MVI   0(#15),C' '         Blank it out to fix "%" problem
NONONONO DS    0H
         SPACE
         SLL   #5,16               ELSE SHIFT INTO LEFT HALF OF WORD
         ST    #5,0(,#1)           STORE COMMAND BUFFER PREFIX
         LR    #5,#1               Load command buffer pointer
         SPACE
         LA    #3,4095(,#12)       Set up second base register
         USING TSO+4095,#3
         SPACE
***********************************************************************
*                                                                     *
* REGISTER USAGE:                                                     *
*                                                                     *
*   #3  -->  SECOND BASE REGISTER                                     *
*   #4  -->  ECT (ENVIRONMENT CONTROL TABLE)                          *
*   #5  -->  CBUF (COMMAND BUFFER)                                    *
*   #6  -->  (AVAILABLE)                                              *
*   #7  -->  ADDRESS OF OUR INPUT STACK                               *
*                                                                     *
* NOTE: REGISTER USAGE IN EXIT ROUTINES MAY DEVIATE FROM THE ABOVE.   *
*                                                                     *
***********************************************************************
*
* BUILD CPPL FROM SYSTEM CONTROL BLOCKS
*
         USING PSA,0
         L     #15,PSATOLD          GET TCB ADDRESS
         USING TCB,#15
         L     #15,TCBJSCB          GET JSCB ADDRESS
         USING IEZJSCB,#15
         L     #15,JSCBACT          GET ADDRESS OF ACTIVE JSCB
         L     #15,JSCBPSCB         GET ADDRESS OF PSCB
         LTR   #15,#15             IF THERE'S NO PSCB
         BZ    NOTSO               THEN TSO NOT ACTIVE
         ST    #15,CPPLPSCB         SAVE PSCB ADDRESS
         USING PSCB,#15
         MVC   CPPLUPT,PSCBUPT      SAVE UPT ADDRESS
         L     #15,PSCBRLGB         GET ADDRESS OF RELOGON BUFFER
         USING RLGB,#15
         L     #4,RLGBECT           GET ADDRESS OF ECT
         ST    #4,CPPLECT          ADDRESS ENVIRONMENT CONTROL TABLE
         USING ECT,#4
         SPACE 2
*
* Locate the LWA (logon work area) to find the addresses of the TSO
* tables that define which TSO commands can be accessed and how.
*
         XR    #0,#0               Clear the list of...
         ST    #0,ZTE2ADDR          TSO commands that run authorized
         L     #15,PSAAOLD         Get ASCB address
         USING ASCB,#15
         L     #15,ASCBASXB        Get ASXB address
         USING ASXB,#15
         ICM   #2,15,ASXBLWA       Get LWA address
         BZ    NOTTSOE             If none, probably not TSO/E
         USING LWA,#2
         ICM   #15,15,LWAPECT      Get LWA's ECT address
         BZ    NOTTSOE             If none, probably not TSO/E
         C     #15,CPPLECT         Check that ECT addresses match
         BE    ECTSOK
         #ERR  2,                                                      X
               'The ECT addresses in the LWA (logon work area) and the X
               RLGB (relogon buffer) do not match.  TSO is using the ECX
               T address from the RLGB.'
ECTSOK   DS    0H
         L     #15,LWATE2          Get address of IKJEFTE2
         ST    #15,ZTE2ADDR        (TSO commands that run authorized)
NOTTSOE  DS    0H
         EJECT
***********************************************************************
* INITIALIZE WORK AREAS                                               *
***********************************************************************
         SPACE
         L     #14,CPPLUPT
         L     #15,CPPLECT
         LA    #0,ZTECB
         STM   #14,#0,IOPLUPT      SET UP IKJPUTL PARAMETER LIST
         LA    #1,ZTCSFLG
         LA    #2,CSOA
         STM   #14,#2,CSPL         SET UP IKJSCAN PARAMETER LIST
         L     #1,CPPLPSCB
         LA    #2,DAPB2C
         STM   #14,#2,DAPLUPT      SET UP IKJDAIR PARAMETER LIST
         LA    #0,X'2C'            DAIR ENTRY CODE TO MARK NOT IN USE
         SLL   #0,16               SHIFT INTO LEFT HALF FOR DAIR CB
         STCM  #0,15,DA2CCD        AND PUT ZEROES INTO FLAG FIELD
         MVI   DA2CDDN,C' '        CLEAR DDNAME TO BLANKS
         MVC   DA2CDDN+1(7),DA2CDDN
         MVC   ZTBLDL(4),=Y(1,12)  INITIALIZE BLDL LIST FOR CMDCHK
         LA    #0,1
         LA    #1,ZTMSGHDR
         XR    #2,#2
         STM   #0,#2,ZTMSGOLD      INITIALIZE PUTLINE WORK AREA
         LA    #1,ZTPGHDR
         STM   #0,#1,ZTPGOLD       INITIALIZE PUTGET MODE MSG AREA
         LA    #1,ZTPGOLD
         ST    #1,PGPB+4           STORE ADDR OF O.L.D. IN PARM BLOCK
         LA    #1,ZTMSGOLD
         ST    #1,PTPBOPUT         STORE ADDR OF O.L.D. IN PARM BLOCK
         LA    #0,ZTCMDECB
         LA    #1,ZTATNECB
         STM   #0,#1,ZTECBLST      INITIALIZE ECB LIST
         OI    ZTECBLST+4,X'80'
*** NOTE: #2 CONTAINS ZEROES FROM ABOVE INSTRUCTIONS.
         ST    #2,DA2CTCB          TCB ADDRESS TO MARK DSE'S NOT IN USE
         ST    #2,ZTRETCD          INITIALIZE RETURN CODE TO ZERO
         MVI   ZTCSFLG,0           PREPARE TO SYNTAX CHECK COMMAND
         MVI   ZTSTATUS,ZTNORMAL   Initialize command status
         L     #2,ECTIOWA          GET ADDRESS OF ORIGINAL INPUT STACK
         ST    #2,ZTSVIOA          SAVE INPUT STACK IN OUR WORK AREA
         MVC   ZTCMDS,ECTPCMD      SAVE ORIGINAL PRIMARY & SUBCOMMAND
*
* Use LINKLIST DCB with BLDL to find system stuff only
* (not stuff in a task library)
*
         L     #15,16              Get CVT address
         L     #0,CVTLINK-CVT(,#15) Get address of LINKLIST DCB
         ST    #0,LINKDCB          Save it
         SPACE 2
***********************************************************************
* SET UP ESTAE (ABEND) AND STAX (ATTENTION) EXIT ROUTINES.            *
***********************************************************************
         SPACE
         LA    #14,STAEEXIT
         ESTAE (#14),PARAM=(#12),MF=(E,ZTESTAE)
         LTR   #15,#15             IF ESTAE FAILED,
         BZ    ESTAEOK             THEN
         LA    #1,=C'ESTAE'         BLOW UP
         LA    #0,5
         B     ERROR
ESTAEOK  OI    ZTFLAGS,ZTESTON     ELSE INDICATE ESTAE IS ACTIVE
         SPACE
         L     #14,=A(STAXEXIT)
         STAX  (#14),USADDR=(#12),REPLACE=NO,MF=(E,ZTSTAX)
         CH    #15,=H'4'           IF STAX FAILED,
         BNH   STAXOK              THEN
         LA    #1,=C'STAX'          BLOW UP
         LA    #0,4
         B     ERROR
STAXOK   OI    ZTFLAGS,ZTSTXON     ELSE INDICATE STAX IS ACTIVE
         EJECT
***********************************************************************
* Determine which version of TSO/Extensions is active.                *
* Reference: TSO/Extensions Version 2 Programming Services (SC28-1875 *
*            Chapter 2. Considerations for Using TSO/E Services       *
*            Determining the Version and Release of TSO/E Installed   *
***********************************************************************
         SPACE 1
         MVI   ZTTSOE,C'0'         Initialize TSO/E version to (none)
         L     #15,X'10'           Get address of CVT
         L     #15,CVTTVT-CVT(,#15) Get address of TSVT
         LTR   #15,#15             If there is none,
         BZ    TSOEV0              then don't change it
         USING TSVT,#15            Else set it...
         MVC   ZTTSOE,TSVTLVER     C'1' = version 1, C'2' = version 2
         SPACE 1
TSOEV0   DS    0H
         SPACE 1
***********************************************************************
* PREPARE TO INVOKE COMMANDS BY SAVING THE CURRENT INPUT STACK AND    *
* INITIALIZING IT TO A TERMINAL ELEMENT (A LA ISPF).                  *
***********************************************************************
         SPACE
         CLI   ZTTSOE,C'2'         If TSO/E Version 2 or later,
         BNL   INITSTK2            then do it the TSO/E Version 2 way
*                                  else do it the TSO/E Version 1 way
         OI    ZTFLAGS,ZTSTKMOD    INDICATE INPUT STACK ADDR ALTERED
         XR    #0,#0               MAKE A ZERO
         ST    #0,ECTIOWA          CLEAR INPUT STACK ADDRESS
         ST    #0,ZTECB            CLEAR ECB FOR STACK
*
* SET UP A TERMINAL ELEMENT AS THE BOTTOM ELEMENT OF NEW INPUT STACK
*
         INSYS
         STACK PARM=STKINIT,MF=(E,IOPL)
         OUTSYS
         LTR   #15,#15             IF STACK FAILED,
         BZ    STACKOK             THEN...
         L     #2,ZTSVIOA           GET SAVED INPUT STACK ADDRESS
         ST    #2,ECTIOWA           RESTORE ORIGINAL INPUT STACK
         NI    ZTFLAGS,255-ZTSTKMOD INDICATE INPUT STACK ADDR RESTORED
         LA    #1,=C'STACK DATASET=*' BLOW UP
         LA    #0,15
         B     ERROR
         SPACE
STACKOK  DS    0H
         SPACE
***********************************************************************
* IN ORDER TO INSURE THAT COMMANDS INVOKED VIA TSO FUNCTION IN THE    *
* BACKGROUND, WE CAUSE OUR STACK TO HAVE THE SAME BOTTOM ELEMENT AS   *
* THE ORIGINAL STACK.  THIS WOULD JUST BE THE TERMINAL IN THE         *
* FOREGROUND, BUT IT WILL BE THE SYSTSPRT DATASET IN THE BACKGROUND.  *
* NOTE THAT WE CAN'T DO THIS "LEGALLY" BY USING THE STACK MACRO TO    *
* SET UP SYSTSPRT AS THE BOTTOM ELEMENT, SINCE THAT WOULD CAUSE IT    *
* TO BE REOPENED FOR OUTPUT AND PREVIOUS TSO OUTPUT WOULD BE LOST.    *
***********************************************************************
         SPACE
         L     #2,ZTSVIOA          Get address of original input stack
         L     #7,ECTIOWA          GET ADDRESS OF OUR NEW INPUT STACK
         L     #14,4(,#7)          GET ADDRESS OF OUR BOTTOM ELEMENT
         L     #15,4(,#2)          GET ADDRESS OF THEIR BOTTOM ELEMENT
         MVC   0(4,#14),0(#15)     MOVE THEIR ELEMENT TO OUR ELEMENT
         B     AINITSTK            Else...
         SPACE 1
INITSTK2 DS    0H                  Set input stack for TSO/E Version 2
*
***********************************************************************
* Make a new input stack by issuing STACK ENVIRON=CREATE, which makes *
* a new ECT and a new IOWA.  We don't use the new ECT, but we do use  *
* the new IOWA, altering the current ECT to point to it.              *
***********************************************************************
*
         XC    ZTECB,ZTECB         Clear ECB
         INSYS
         STACK PARM=STKECREA,MF=(E,IOPL) Stack ENVIRON=CREATE
         OUTSYS
         LTR   #15,#15             If STACK failed,
         BZ    ENVCREOK            then blow up
         LA    #1,=C'STACK ENVIRON=CREATE'
         LA    #0,20
         B     ERROR
ENVCREOK DS    0H                  STACK created new ECT...
*
***********************************************************************
* IN ORDER TO INSURE THAT COMMANDS INVOKED VIA XCLIST FUNCTION IN THE *
* BACKGROUND, WE CAUSE OUR STACK TO HAVE THE SAME BOTTOM ELEMENT AS   *
* THE ORIGINAL STACK.  THIS WOULD JUST BE THE TERMINAL IN THE         *
* FOREGROUND, BUT IT WILL BE THE SYSTSPRT DATASET IN THE BACKGROUND.  *
***********************************************************************
*
         OI    ZTFLAGS,ZTSTKMOD    Indicate input stack addr altered
         L     #15,STKECREA+STPBECTA-STPB Get address of new ECT
         ST    #15,ZTNEWECT               Save it
         MVC   ECTIOWA(4),ECTIOWA-ECT(#15) Copy IOWA pointer to ours
*
* Put a barrier element on the stack.
*
         XC    ZTECB,ZTECB         Clear ECB
         INSYS
         STACK PARM=STKBARR,MF=(E,IOPL) STACK BARRIER=*
         OUTSYS
         LTR   #15,#15             IF STACK UNSUCCESSFUL,
         BZ    BARRIERD            THEN TERMINATE OUR PROCESSING.
         LA    #1,=C'STACK BARRIER=*'
         LA    #0,15
         B     ERROR
BARRIERD DS    0H
*
* Use PUTGET SUBSTACK=YES in conjunction with the barrier.
*
         MVC   PGPB(PGPBSUBL),PGPBSUB Set up PUTGET SUBSTACK=YES form
         LA    #1,ZTPGOLD
         ST    #1,PGPB+4           STORE ADDR OF O.L.D. IN PARM BLOCK
         SPACE 1
AINITSTK DS    0H                  ECT ready with new stack
         SPACE
***********************************************************************
* THE COMMAND BUFFER PASSED TO US IS SCANNED AS A TSO COMMAND, THE    *
* FIRST OPERAND IS CHECKED TO SEE IF IT IS A VALID TSO COMMAND OR     *
* CLIST, AND IF SO, IT IS THEN INVOKED.                               *
***********************************************************************
         SPACE
         ST    #5,CPPLCBUF         SET CPPL COMMAND BUFFER ADDRESS
         MVC   ZTOFFSET,2(#5)      SAVE POSSIBLE CLIST NAME OFFSET
         LR    #1,#5               POINT TO COMMAND BUFFER
         #BAS  #14,SCAN            SCAN NEXT OPERAND IN COMMAND BUFFER
         B     GOSCAN(#15)         BRANCH BASED ON RETURN CODE
GOSCAN   B     SCAN0               RC=0 - VALID COMMAND NAME
         B     RETURN              RC=4 - NO COMMAND NAME, RETURN NIL
         B     SCAN8               RC=8 - INVALID COMMAND NAME
         LH    #15,ZTSCANRC        RC=12 - SCAN ERROR
         LA    #1,=C'SCAN'          IN WHICH CASE, BLOW UP
         LA    #0,4
         B     ERROR
         SPACE
SCAN8    DS    0H                  COMMAND IS SYNTACTICALLY INVALID
         LA    #1,SYNMSG
         LA    #0,L'SYNMSG
         #BAS  #14,PUTLINE         DISPLAY ERROR MESSAGE
         LA    #1,FLUSHALL
         #BAS  #14,FLUSH           AND FLUSH THE INPUT STACK
         B     RETURN
         SPACE
SCAN0    DS    0H                  COMMAND NAME IS SYNTACTICALLY OK
         #BAS  #14,CKCMD           CHECK EXISTENCE OF COMMAND
         TM    ZTFLAGS,ZTSUBER     IF SEVERE ERROR OCCURRED,
         BO    ERROR               THEN GO DISPLAY ERROR MESSAGE
         LTR   #15,#15             IF COMMAND IS NOT SUPPORTED
         BNZ   RETURN              THEN RETURN WITHOUT INVOKING IT
         #BAS  #14,ATTACH          ELSE ATTACH THE COMMAND
         TM    ZTFLAGS,ZTSUBER     IF SEVERE ERROR OCCURRED,
         BO    ERROR               THEN GO DISPLAY ERROR MESSAGE
         B     PROCXC              GO PROCESS ADDITIONAL STACKED CMD'S
         EJECT
RETURN   DS    0H
         SPACE
***********************************************************************
*           *** RETURN TO CALLING PROGRAM ***                         *
*         CLEAR OUR STACK, RESTORE ORIGINAL ONE,                      *
*                 FREE STORAGE AND EXIT                               *
***********************************************************************
         SPACE
         TM    ZTFLAGS,ZTSTKMOD    IF INPUT STACK ADDRESS WAS ALTERED,
         BZ    AFTSTKRS            THEN
         CLI   ZTTSOE,C'2'         If TSO/E Version 2 or later
         BNL   FREESTK2            then unstack the new way
*                                  else unstack the old way
STKCHECK DS    0H                   CHECK CURRENT INPUT STACK
         CLC   0(4,#7),4(#7)        IF TOP ELEMENT NOT = BOTTOM ELEMENT
         BE    STKCLRD              THEN
         LA    #1,FLUSHTOP           CALL STACK TO FLUSH TOP ELEMENT
         #BAS  #14,FLUSH             UNTIL
         B     STKCHECK              ALL STACK ELEMENTS ARE CLEARED.
STKCLRD  DS    0H                  WHEN STACK IS CLEARED...
*
* NOTE THAT WE DON'T PROCESS THE BOTTOM ELEMENT OF OUR STACK VIA STACK!
* IT CANNOT BE DELETED IF IT IS A TERMINAL ELEMENT, AND IF IT IS A
* DATASET ELEMENT WE DEFINITELY DON'T WANT TO CLOSE IT, SO WE JUST
* LET IT DISAPPEAR (UN)NATURALLY.
*
         B     AFTSTKRS
         SPACE 1
FREESTK2 DS    0H                  Unstack the TSO/E Version 2 way...
         XC    ZTECB,ZTECB
         INSYS
         STACK PARM=STKDELB,MF=(E,IOPL) STACK DELETE=BARRIER
         OUTSYS
         LTR   #15,#15
         BZ    AFTSTKDB
         LA    #1,=C'STACK DELETE=BARRIER'
         LA    #0,20
         B     ERROR
         SPACE 1
AFTSTKDB DS    0H
*
***********************************************************************
* Clear things out by issuing STACK ENVIRON=DESTROY.  This SHOULD     *
* have the effect of deleting all the elements from the IOWA that     *
* we have been using.  Then restore the old IOWA pointer to the ECT.  *
***********************************************************************
*
         L     #15,ZTNEWECT               Get address of new ECT
         ST    #15,STKEDEST+STPBECTA-STPB Store into stack parm list
         ST    #15,IOPLECT         Store into IOPL for STACK to see
         XC    ZTECB,ZTECB         Clear ECB
         INSYS
         STACK PARM=STKEDEST,MF=(E,IOPL) Stack ENVIRON=DESTROY
         OUTSYS
         LTR   #15,#15             If STACK failed,
         BZ    ENVDESOK            then blow up
         LA    #1,=C'STACK ENVIRON=DESTROY'
         LA    #0,20
         B     ERROR
ENVDESOK DS    0H                  STACK back to normal, almost...
         MVC   IOPLECT,CPPLECT     Restore our ECT pointer
         SPACE 1
AFTSTKRS DS    0H
         MVC   ECTIOWA(4),ZTSVIOA   RESTORE ORIGINAL INPUT STACK ADDR
         NI    ZTFLAGS,255-ZTSTKMOD INDICATE INPUT STACK RESTORED
         TM    ZTFLAGS,ZTECTMOD    IF ECTPCMD OR ECTSCMD WAS ALTERED,
         BZ    AFTCMDRS            THEN
         MVC   ECTPCMD(16),ZTCMDS   RESTORE ECTPCMD AND ECTSCMD.
AFTCMDRS DS    0H
         TM    ZTFLAGS,ZTSTXON     IF STAX IS ACTIVE
         BNO   OFFSTAX             THEN
         STAX  ,                    CANCEL STAX
OFFSTAX  DS    0H
         TM    ZTFLAGS,ZTESTON     IF ESTAE IS ACTIVE
         BNO   OFFESTAE            THEN
         ESTAE 0                    CANCEL ESTAE
OFFESTAE DS    0H
         SPACE
FINALRET DS    0H
         CLI   ZTSTATUS,ZTABEND    If command terminated abnormally,
         BE    RABEND              then handle abending command
         CLI   ZTSTATUS,ZTATTN     If command interrupted,
         BE    RATTN               then handle attentioned command
RNORMAL  DS    0H                  Else return with last return code
*
* CONVERT THE RETURN CODE FROM THE COMMAND INTO A FIXNUM
*
         L     #2,ZTRETCD          Get return code into reg for fixnum
         LA    #0,16(,#11)         PASS CURRENT STACK LOCATION TO CONS
         #MKAT FIXED               USING CONTENTS OF #15, MAKE FIXNUM
         SPACE 1
         #ZRET ,                   RESTORE REGISTERS AND RETURN
         EJECT
NOTSO    DS    0H                  HERE IF LINK FAILS
         #ERR  PREFIX=NO,                                              X
               'ZIL2121 TSO: Command feature not available, TSO is not X
               active - ',                                             X
               0(#11)              (try to print out list of strings)
         SPACE 1
BADLIST  DS    0H
         #ERR  PREFIX=NO,                                              X
               'ZIL2122 TSO: Cannot convert argument to string - ',    X
               (#2),                                                   X
               X'0D',              carriage return                     X
               '(it''s a list, vector, funarg, or structure).'
         SPACE 1
TOOLONG  DS    0H                  Error - command string too long
         #ERR  PREFIX=NO,                                              X
               'ZIL2120 TSO: Command exceeds maximum length of 32763 - X
               ',                                                      X
               0(#11)              (try to print out list of strings)
         SPACE
RABEND   DS    0H                  Error - command string too long
         #BAS  #14,FAKESTR         Generate string for error message
         #ERR  PREFIX=NO,                                              X
               'ZIL2124 TSO: Requested command was abnormally terminateX
               d - ',(#2)
         SPACE
RATTN    DS    0H                  Error - command string too long
         #BAS  #14,FAKESTR         Generate string for error message
         #ERR  PREFIX=NO,                                              X
               'ZIL2125 TSO: Requested command terminated due to attentX
               ion - ',(#2)
         SPACE
ERROR3   DS    0H                  ERROR - NOT ENOUGH STORAGE
         XR    #0,#0               CLEAR WORK AREA ADDRESS AND LENGTH
         ST    #0,ZLCWA
         ST    #0,ZLCWALEN
         #ERR  PREFIX=NO,                                              X
               'ZIL2123 TSO: Not enough memory to build TSO command - 'X
               ,0(#11)             (try to print out list of strings)
         EJECT
FAKESTR  DS    0H                  Subroutine to fake out a string
*                                  for ZIL error messages
         L     #2,ZLCWA            Get address of original command
         LH    #0,0(,#2)           Get length of command buffer
         SH    #0,=H'4'            Convert to length of command string
         ST    #0,0(,#2)           Turn into ZIL string length
         MVI   0(#2),##STRING      Set string type
         BR    #14
         EJECT
PROCXC   DS    0H
         SPACE
***********************************************************************
*               STACKED COMMAND PROCESSING                            *
*                                                                     *
* FOR THIS ROUTINE, ALL COMMANDS PLACED ON THE INPUT STACK BY THE     *
* CURRENT COMMAND (E.G. A CLIST) ARE EXECUTED FROM THIS INTERFACE.    *
* THE END OF THE CLIST OR STACK ELEMENT IS DETERMINED BY REACHING     *
* THE BOTTOM LEVEL OF THE INPUT STACK.                                *
*                                                                     *
* NOTE: WHEN THE END OF A CLIST IS REACHED, THE PUTGET SERVICE        *
* ROUTINE AUTOMATICALLY GOES TO THE NEXT LOWER ELEMENT ON THE STACK   *
* TO RETRIEVE THE NEXT COMMAND.  NO NOTIFICATION IS RECEIVED BY THE   *
* CALLER OF PUTGET THAT THIS HAS HAPPENED.  TO GET AROUND THIS        *
* PROBLEM, WE ISSUE A PUTGET WITH A BAD MODE MESSAGE SO THAT THE      *
* PUTGET WILL COMPLETE SUCCESSFULLY AS LONG AS IT GETS A COMMAND FROM *
* A CLIST, BUT NOT WHEN IT TRIES TO GET A COMMAND FROM THE TERMINAL   *
* (IT WILL RETURN A CODE OF 24 IN THIS CASE).  (THIS IDEA CAME        *
* ORIGINALLY FROM ISPF MODULE ISPCAT (OR CAT).) WHEN THIS SITUATION   *
* IS DETECTED, THE RETURN CODE FROM PUTGET IS CHECKED; IF THE INPUT   *
* WAS OBTAINED FROM THE TERMINAL BUT NOT FROM THE BOTTOM LEVEL OF     *
* THE INPUT STACK, THE PROBABLE EXPLANATION IS THAT A "TERMIN"        *
* COMMAND PROCEDURE STATEMENT HAS BEEN EXECUTED, SO THE PUTGET IS     *
* REISSUED WITH A GOOD MODE MESSAGE TO PERMIT TERMIN FUNCTIONING.     *
* OTHERWISE WE KNOW THAT THE CLIST HAS COME TO AN END AND WE EXIT.    *
*                                                                     *
* THIS GIVES RISE TO A PROBLEM IN CLISTS THAT CONTAIN TERMIN          *
* STATEMENTS:  IF CONTROL IS RETURNED TO THE CLIST BY THE USER'S      *
* ENTRY OF A TERMIN STRING, AND THE CLIST ISSUES NO MORE TSO COMMANDS *
* BUT DOES SOME CLIST PROCESSING AND TERMINATES, THIS SUBROUTINE HAS  *