         MACRO
&NAME    AUTH  &P
         AIF   ('&NAME' EQ '').START
&NAME    DS    0H
.START   AIF   ('&P' EQ '' OR '&P' NE 'ON').OFF
         SR    1,1 .               LOAD AUTHORIZATION ON CODE
         SVC   254 .               TURN AUTHORIZATION ON
         MEXIT
.OFF     LA    1,4 .               LOAD AUTHORIZATION OFF CODE
         SVC   254 .               TURN AUTHORIZATION OFF
         MEND
         EJECT
AON      BEGIN &SYSDATE,BASE1=12
         LINK  EP=CBT390,PARAM=(PARM)
         AUTH  ON                  TURN AUTHORIZATION ON
         L     R13,SAVEAREA+4
         RETURN (14,12),RC=0
         EJECT
PARM     DC    XL2'0100'
         END
