         MACRO
&NAME    SAVEALL    &RENT,&REG=3,&EQU=YES
         GBLB  &SAVRENT
         GBLB  &REGSW
         GBLB  &TIME
         GBLC  &SAVNDX
&SAVNDX  SETC  '&SYSNDX'
&NAME    CSECT
         AIF   ('&SAVRENT' EQ '1').NOTFREE
         AIF   ('&REGSW' EQ '1').NOEQU
         AIF   ('&EQU' NE 'YES').NOEQU
&REGSW   SETB  1
         SPACE 2
***********************************************************************
********           DEFINITION OF GENERAL REGISTERS             ********
***********************************************************************
R0       EQU   0    GENERAL REGISTER ZERO
R1       EQU   1    GENERAL REGISTER ONE
R2       EQU   2    GENERAL REGISTER TWO
R3       EQU   3    GENERAL REGISTER THREE
R4       EQU   4    GENERAL REGISTER FOUR
R5       EQU   5    GENERAL REGISTER FIVE
R6       EQU   6    GENERAL REGISTER SIX
R7       EQU   7    GENERAL REGISTER SEVEN
R8       EQU   8    GENERAL REGISTER EIGHT
R9       EQU   9    GENERAL REGISTER NINE
R10      EQU   10   GENERAL REGISTER TEN
R11      EQU   11   GENERAL REGISTER ELEVEN
R12      EQU   12   GENERAL REGISTER TWELVE
R13      EQU   13   GENERAL REGISTER THIRTEEN
R14      EQU   14   GENERAL REGISTER FOURTEEN
R15      EQU   15   GENERAL REGISTER FIFTEEN
         SPACE 1
RA       EQU   10   GENERAL REGISTER TEN
RB       EQU   11   GENERAL REGISTER ELEVEN
RC       EQU   12   GENERAL REGISTER TWELVE
RD       EQU   13   GENERAL REGISTER THIRTEEN
RE       EQU   14   GENERAL REGISTER FOURTEEN
RF       EQU   15   GENERAL REGISTER FIFTEEN
***********************************************************************
********             END OF REGISTER DEFINITIONS               ********
***********************************************************************
         SPACE 2
.NOEQU   ANOP
         SAVE  (14,12),,*
         AIF   ('&REG' EQ '').MESS
         BALR  &REG(1),0
         AIF   (N'&REG EQ 1).A
         AIF   (N'&REG EQ 2).B
         AIF   (N'&REG EQ 3).C
         AIF   (N'&REG EQ 4).D
         AIF   (N'&REG EQ 5).E
         MNOTE *****,'EXCESSIVE BASE REGISTERS -- 5 ASSUMED *****'
         AGO   .E
.MESS    MNOTE 12,'***** NO BASE REGISTER SPECIFIED *****'
         MEXIT
.NOTFREE MNOTE 12,'***** ENDALL NOT ISSUED PRIOR TO NEW SAVEALL *****'
         MEXIT
.E       USING *,&REG(1),&REG(2),&REG(3),&REG(4),&REG(5)
Q&SYSNDX L     &REG(2),=A(Q&SYSNDX+4096)     LOAD BASE REGISTERS
         L     &REG(3),=A(Q&SYSNDX+8192)
         L     &REG(4),=A(Q&SYSNDX+12288)
         L     &REG(5),=A(Q&SYSNDX+16384)
         AGO   .END
.D       USING *,&REG(1),&REG(2),&REG(3),&REG(4)
Q&SYSNDX L     &REG(2),=A(Q&SYSNDX+4096)     LOAD BASE REGISTERS
         L     &REG(3),=A(Q&SYSNDX+8192)
         L     &REG(4),=A(Q&SYSNDX+12288)
         AGO   .END
.C       USING *,&REG(1),&REG(2),&REG(3)
Q&SYSNDX L     &REG(2),=A(Q&SYSNDX+4096)     LOAD BASE REGISTERS
         L     &REG(3),=A(Q&SYSNDX+8192)
         AGO   .END
.B       USING *,&REG(1),&REG(2)
Q&SYSNDX L     &REG(2),=A(Q&SYSNDX+4096)     LOAD BASE REGISTER
         AGO   .END
.A       USING *,&REG(1)
.END     ANOP
         AIF   ('&RENT' NE 'RENT').NORENT
&SAVRENT SETB  1
         GETMAIN    R,LV=72        GET STORAGE FOR SAVE AREA
         ST    13,4(1)             SET UP FORWARD CHAIN
         ST    1,8(13)             SET UP BACKWARD CHAIN
         L     0,20(0,13)          RESET REGISTER 0
         L     1,24(0,13)          RESET REGISTER 1
         L     13,8(0,13)          LOAD SAVE AREA ADDRESS
         AGO   .RENT
.NORENT  ANOP
&TIME    SETB  1
         ST    13,SAVE&SYSNDX+4    SET UP FORWARD CHAIN
         LA    1,SAVE&SYSNDX
         ST    1,8(0,13)           SET UP BACKWARD CHAIN
         L     1,24(0,13)          RESET REGISTER 1
         LA    13,SAVE&SYSNDX
         B     J&SYSNDX           BRANCH AROUND BASE REGISTER CONST
SAVE&SYSNDX DC 18F'0'
.RENT    ANOP
         LTORG
J&SYSNDX DS    0H
         EJECT
         MEND
