         MACRO ,
&NM      FETWORK &PFX=FT,&DSECT=YES   MAP PARMS FOR SUBFETCH ROUTINE
         LCLC  &NAME
&NAME    SETC  '&NM'
         AIF   ('&DSECT' EQ 'YES' OR '&DSECT' EQ '').DOD
         AIF   ('&NM' EQ '').DONES
&NM      DS    0F            SUBFETCH PARAMTER LIST
         AGO   .DONES
.DOD     AIF   ('&NM' NE '').HAVNAM
&NAME    SETC  'FETWORK'
.HAVNAM  ANOP  ,
&NAME    DSECT ,             SUBFETCH PARAMETER LIST
.DONES   ANOP  ,
&PFX.@DCB   DC  A(0)         PROGRAM LIBRARY OPEN DCB
&PFX.@NAME  DC  A(0)         MEMBER NAME
&PFX.MFBLD  EQU X'80'          ABOVE POINTS TO BLDL RESULTS
&PFX.@LOAD  DC  A(0)         REQUESTED/RETURNED LOAD ADDRESS
&PFX.#LOAD  DC  F'0'         STORAGE ACQUIRED (24-BITS)
&PFX.@RELOC DC  A(0)         REQUESTED/RETURNED RELOCATION BASE
&PFX.@ENTRY DC  A(0)         ENTRY ADDRESS WITH AMODE BIT
&PFX.#MODSZ DC  F'0'         MODULE SIZE
&PFX.OFLGSP DC  X'0'         SUBFETCH - SUBPOOL FOR LOADING
&PFX.OFLGS1 DC  X'0'         OPTION FLAGS FOR SUBFETCH
&PFX.OFALTN EQU X'80'          USE AN ALTERNATE NAME FOR CDE
&PFX.OFBCDE EQU X'40'          FETCH TO CALL CDE TO BUILD ONE
&PFX.OFBCDF EQU X'20'          CDE BUILD FAILED                 GP06308
&PFX.OFNOLO EQU X'10'          CDE NOT TO ISSUE LOAD
&PFX.OFREFR EQU X'08'          USE SP252 IF RENT/REFR AND AUTH  GP11270
&PFX.OFFREN EQU X'04'          FORCE RE-ENTRANT                 GP11270
&PFX.OFCLR0 EQU X'02'          CLEAR GOTTEN STORAGE TO 0        GP05261
&PFX.OFCLRC EQU X'01'          CLEAR GOTTEN STORAGE TO X'CC'    GP05261
&PFX.OFLGS2 DC  X'0'         OPTION FLAGS FOR SUBCDE
&PFX.OFRENT EQU X'20'          FLAG LOADED MODULE RE-ENTRANT
&PFX.OFREUS EQU X'10'          FLAG LOADED MODULE RE-USABLE
&PFX.OFLGS3 DC  X'0'         OPTION FLAGS FOR SUBCDE
&PFX.OFAPFL EQU X'02'          FLAG AS COMING FROM APF LIBRARY
&PFX.OFAUTH EQU X'01'          FLAG AS BEING AUTHORIZED AC=1
&PFX.FWCLRS EQU *-&PFX.@DCB    SIZE TO CLEAR
         MEND  ,
