         MACRO ,
&NM      FSAWORK &PFX=FSA                               ADDED ON 81149
         LCLC  &NAME
&NAME    SETC  'FSAWORK'
         AIF   ('&NM' EQ '').NONAME
&NAME    SETC  '&NM'
.NONAME  ANOP  ,
&NAME    DSECT ,             HEADER FOR WORK AREAS CHAINED FROM TCBFSA
&PFX.LINK  DC  A(0)          POINTER TO NEXT AREA ON CHAIN
&PFX.ID    DC  CL4' '        NAME OF THIS WORK AREA
&PFX.SPLEN DC  F'0'          SUBPOOL/LENGTH OF THIS ENTRY
&PFX.TCB   DC  A(0)          TCB ADDRESS OF OWNER
&PFX.PFXL  EQU *-&PFX.LINK   SIZE OF PREFIX
         MEND  ,
