         MACRO ,
&NM      SERVPDS &DSECT=YES,&PFX=PDD,&RETURN=,&VER=2,&OPT=      GP98365
.*   CHANGED FOR Y2K SUPPORT, ETC. (NOT FOR PGM OBJECTS)        GP98365
         LCLC  &P,&NAME
&NAME    SETC  '&NM'
&P       SETC  'PDD'
         AIF   ('&NAME' NE '').HAVENM
&NAME    SETC  'SERVPDS'
.HAVENM  AIF   ('&DSECT' NE 'YES').NOSECT
&NAME    DSECT ,
         AGO   .TESTP
.NOSECT  AIF   ('&NM' EQ '').TESTP
&NM      DS    0A .
.TESTP   AIF   ('&PFX' EQ '').HAVEP
&P       SETC  '&PFX'
.HAVEP   AIF   ('&OPT' EQ 'DISPLAY').DISPLAY  EXHIBIT FORMAT    GP08274
         AIF   (&VER EQ 1).OLDVER                               GP98365
&P.NEXT  DC    A(0)          ADDRESS OF CURRENT MEMBER
&P.INCR  DC    A(0)          BXLE INCREMENT FOR CURRENT MEMBER
&P.LAST  DC    A(0)          LAST USED BYTE IN BLOCK
&P.RECFM DC    AL1(0)        RECFM
&P.TYPE  DC    X'00'         ENTRY TYPE
&P.TLKED EQU   X'80'           LINKAGE EDITOR ENTRY
&P.TSPF  EQU   X'40'           SPF ENTRY
&P.TWYL  EQU   X'20'           WYLBUR ENTRY (LOCAL)
&P.TDTX  EQU   X'10'           IEBUPDTX ENTRY
&P.FLAGS DC    X'00'         ENTRY FLAGS (FIELDS PRESENT)
&P.AOSLE EQU   X'80'           PRODUCED BY VS LINKAGE EDITOR
&P.FREAL EQU   X'40'           MAIN MEMBER/EPA PRESENT
&P.FSSI  EQU   X'10'           SSI FIELD PRESENT
&P.FAPF  EQU   X'08'           APF FIELD PRESENT
&P.FSCTR EQU   X'04'           SCATTER LOAD MODULE
&P.FLAG2 DC    X'00'         SECOND FLAG BYTE                   GP98365
&P.FLAG3 DC    X'00'         THIRD FLAG BYTE                    GP98365
&P.UDLEN DC    X'00'         NUMBER OF HALFWORDS OF USER DATA
&P.OSSI  DC    H'0'          OFFSET TO SSI FROM NAME
&P.OAPF  DC    H'0'          OFFSET TO APF FROM NAME
         DC    4H'0'         EXTRA FOR EXPANSION                GP98365
&P.CLRLN EQU   *-&P.TYPE       LENGTH TO CLEAR
         AIF   ('&OPT' EQ 'BASIC').MEND                         GP08274
         AIF   (T'&RETURN EQ 'O').MEND                          GP98365
         AIF   ('&RETURN' NE 'DSECT').NODS2                     GP98365
SERVPDSR DSECT ,                                                GP98365
.NODS2   ANOP  ,                                                GP98365
&P.RALIS DC    C' '          BLANK OR * FOR ALIAS               GP98365
&P.RNAME DC    CL8' '        EDITED MEMBER NAME                 GP98365
&P.RSSI  DC    CL8' '        SSI OR BLANKS                      GP98365
&P.RYMD  DC    CL8' '        CHANGE DATE YYYYMMDD               GP98365
&P.RJDAY DC    CL3' '        CHANGE DATE JJJ (JULIAN FORM)      GP98365
&P.RAPF  DC    CL4'AC=N'     APF OR BLANKS                      GP98365
&P.RMAIN DC    CL8' '        MAIN MEMBER OR SPF UID OR BLANKS   GP98365
&P.RRMOD DC    CL3' '        24 OR 31 - RESIDENCE MODE (OR ANY) GP98365
&P.RAMOD DC    CL3' '        24 OR 31 - ADDRESSING MODE         GP98365
&P.RBLNK EQU   *-&P.RALIS      LENGTH TO BLANK                  GP98365
         AGO   .MEND                                            GP98365
.OLDVER  AIF   (&VER EQ 1).VERONE                               GP98365
         MNOTE 8,'PLEASE USE VER=1 OR VER=2 TO MATCH SERVCALL'  GP98365
.VERONE  ANOP  ,                                                GP98365
&P.NEXT  DC    A(0)          ADDRESS OF CURRENT MEMBER          GP98365
&P.INCR  DC    A(0)          BXLE INCREMENT FOR CURRENT MEMBER  GP98365
&P.LAST  DC    A(0)          LAST USED BYTE IN BLOCK            GP98365
&P.RECFM DC    AL1(0)        RECFM                              GP98365
&P.TYPE  DC    X'00'         ENTRY TYPE                         GP98365
&P.TLKED EQU   X'80'           LINKAGE EDITOR ENTRY             GP98365
&P.TSPF  EQU   X'40'           SPF ENTRY                        GP98365
&P.TWYL  EQU   X'20'           WYLBUR ENTRY (LOCAL)             GP98365
&P.TDTX  EQU   X'10'           IEBUPDTX ENTRY                   GP98365
&P.FLAGS DC    X'00'         ENTRY FLAGS (FIELDS PRESENT)       GP98365
&P.AOSLE EQU   X'80'           PRODUCED BY VS LINKAGE EDITOR    GP98365
&P.FREAL EQU   X'40'           MAIN MEMBER/EPA PRESENT          GP98365
&P.FSSI  EQU   X'10'           SSI FIELD PRESENT                GP98365
&P.FAPF  EQU   X'08'           APF FIELD PRESENT                GP98365
&P.FSCTR EQU   X'04'           SCATTER LOAD MODULE              GP98365
&P.UDLEN DC    X'00'         NUMBER OF HALFWORDS OF USER DATA   GP98365
&P.OSSI  DC    H'0'          OFFSET TO SSI FROM NAME            GP98365
&P.OAPF  DC    H'0'          OFFSET TO APF FROM NAME            GP98365
&P.CLRLN EQU   *-&P.TYPE       LENGTH TO CLEAR                  GP98365
         AIF   ('&OPT' EQ 'BASIC').MEND                         GP08274
         AIF   (T'&RETURN EQ 'O').MEND                          GP98365
         AIF   ('&RETURN' NE 'DSECT').NODS
SERVPDSR DSECT ,
.NODS    ANOP  ,
&P.RALIS DC    C' '          BLANK OR * FOR ALIAS
&P.RNAME DC    CL8' '        EDITED MEMBER NAME
&P.RSSI  DC    CL8' '        SSI OR BLANKS
&P.RDATE DC    CL5' '        CHANGE DATE OR BLANKS
&P.RAPF  DC    CL4'AC=N'     APF OR BLANKS
&P.RMAIN DC    CL8' '        MAIN MEMBER OR SPF UID OR BLANKS
&P.RRMOD DC    CL2' '        24 OR 31 - RESIDENCE MODE           90204
&P.RAMOD DC    CL2' '        24 OR 31 - ADDRESSING MODE          90204
&P.RBLNK EQU   *-&P.RALIS      LENGTH TO BLANK
         MEXIT ,
.DISPLAY ANOP  ,             FORMATTED FOR 80 BYTE DISPLAY LINE
.*    USED BY SUBROUTINE SUBXDEFM
&P.RALIS DS    C             ALIAS INDICATOR
&P.RNAME DS    CL8           MEMBER OR ALIAS NAME
         DS    C
&P.RTTR  DS    CL6           TTR OF FIRST RECORD                 81319
         DS    C
&P.REPAD DS    CL6
         DS    C
&P.SIZE  DS    CL6
         DS    C
&P.TXT   DS    CL6
         DS    CL2
&P.RATTR DS    CL32          LKED OPTION FIELD
&P.RATTN EQU   L'&P.RATTR/5    (TEMP)                           GP08274
         DS    C
&P.RMODE DS    CL4                                              GP08274
         DS    C                                                GP08274
&P.RAPF  DS    CL4                                              GP08274
         DS    C                                                GP08274
&P.RMAIN DS    CL8                                              GP08274
         DS    C
&P.RSSI  DS    CL8
&P.EQU   EQU   *
         SPACE 1                                                 80150
         ORG   &P.REPAD      REDEFINE FOR NON-LKED ENTRY         80150
&P.NSSI  DS    CL8           SSI FIELD                           80150
         DS    C                                                 80150
&P.DATA  DS    CL54          USER DATA                           80150
         SPACE 1                                                 83178
         ORG   &P.REPAD                                          83178
DSFCENT  DC    CL8'CCYY.DDD' DATE MODIFIED                      GP08274
         DC    C' '                                             GP08274
DSFTIM   DC    C'HH:MM'      TIME MODIFIED                       83178
         DC    C' '                                              83178
DSFDVER  DC    C'V'          VERSION ID                         GP08274
DSFVER   DC    C'MM.NN'      VERSION/ MOD                       GP08274
         DC    C' '                                              83178
DSFDUID  DC    C'U='                                             83178
DSFUID   DC    CL7' ',C' '   WYLBUR USES 8                       83178
         DC    C' '                                              83178
DSFLCUR  DC    CL7' ',C' '                                       83178
DSFDCL2  DC    C'CUR',C' '                                       83178
DSFLMOD  DC    CL7' ',C' '                                       83178
DSFDCL3  DC    C'CHG'                                            83178
         SPACE 1                                                 83178
         ORG   &P.REPAD                                          83178
DSXMAIN  DC    CL8' '        MAIN MEMBER                        GP08274
DSXVER   DC    C'VMM.NN',C' '                                   GP08274
DSXCENT  DC    C'CCYY.DDD',C' '                                 GP08274
DSXTIME  DC    C'HH:MM',C' '                                    GP08274
.MEND    MEND  ,
