         MACRO ,
&NM      SERVSORT &DSECT=YES,&PFX=SOP,&LOW=0,&HIGH=0,&SEQ=C'A',        *
               &COO=0,&COL=0,&LEN=0                     ADDED ON 82024
         LCLC  &P,&NAME
&NAME    SETC  '&NM'
&P       SETC  'SOP'
         AIF   ('&NAME' NE '').HAVENM
&NAME    SETC  'SERVSORT'
.HAVENM  AIF   ('&DSECT' NE 'YES').NOSECT
&NAME    DSECT ,
         AGO   .TESTP
.NOSECT  AIF   ('&NM' EQ '').TESTP
&NM      DS    0A .
.TESTP   AIF   ('&PFX' EQ '').HAVEP
&P       SETC  '&PFX'
.HAVEP   ANOP  ,
&P.LOW   DC    A(&LOW)       LOWEST ENTRY ADDRESS
&P.FAD   EQU   X'80'         ON IN HIGH TO SIGNAL ADDRESS
&P.HIGH  DC    A(&HIGH)      ADDRESS (-) / ELSE # OF ENTRIES
&P.SEQ   DC    AL1(&SEQ)     SORT SEQUENCE (C'A' OR C'D')
&P.COO   DC    AL1(&COO)     COMPARE OFFSET
&P.COL   DC    AL1(&COL)     COMPARE LENGTH
&P.LEN   DC    AL1(&LEN)     ENTRY LENGTH
         MEND  ,
