         MACRO
&NAME    TERMTYPE &TERMIDL=
         CNOP 0,4
&NAME    DS   0H
         SR   1,1                  ZERO REGISTER 1
         LA   0,&TERMIDL           LOAD TERMINAL ID LOCATION
         LA   15,2                 LOAD ENTRY CODE
         SLL  15,24                SHIFT TO TOP BYTE
         OR   0,15                 GATE INTO REGISTER 0
         LNR  0,0                  MAKE NEGATIVE
         SVC  94                   ISSUE TERMINAL CONTROL SVC
         MEXIT
         MEND
