)ATTR
 @ TYPE(OUTPUT) INTENS(LOW)
)BODY
%  System Library Subscription Service +Table: &SLSS
+Option:_OPT         + add,sort,prt,cancel,                 +%scroll ===>_AMT +
+                      save, or Manual No.
+
+Select opt:  S - Display/Change adding TNLs
+             D - Delete  (one entry at a time)
+
+Sel    Manual #    Book Subj TNL Ord   Name
+
)MODEL
_Z+  @Z       -@Z  @Z    @Z   @Z  @Z @Z
)INIT
 .CURSOR = OPT
 .HELP = SLSS#PT1
 &AMT = HALF
 &OPT = &Z
 &SELECT = &Z
 &VARS = '(SELECT MANID MANDASH BOOK SB TNL STATUS NAME)'
)END
