         MACRO
&NAME    MCLEAR &RC=0,&RE=NO,&LDSA=YES
.*       SII MCEVOY RETURN MACRO
.* CHANGE HISTORY:
.* 28/10/81 RH : CREATED WITHOUT MODIFICATIONS FROM LOLA 'CLEAR'
.*
         AIF   ('&RE' EQ 'NO').LOAD13
         AIF   ('&RE' EQ 'YES').RESET13
         MNOTE 4,'INVALID SPECIFICATION FOR ''RE'' ''NO'' ASSUMED'
         AGO   .LOAD13
.RESET13 ANOP
&NAME    LA    1,8
         LA    13,0(13)
         SR    13,1
         L     0,0(13)
         L     1,4(13)
         LA    1,0(1)
         L     13,12(13)
         FREEMAIN R,LV=(0),A=(1)
         AGO   .TESTRC
.LOAD13  AIF   ('&LDSA' EQ 'YES').SET13
         AIF   ('&LDSA' EQ 'NO').NOLDSA
         MNOTE 4,'INVALID LDSA SPECIFIED ''NO'' ASSUMED'
.NOLDSA  ANOP
&NAME    LA    13,0(13)
         AGO   .TESTRC
.SET13   ANOP
&NAME    L     13,4(13)
.TESTRC  AIF   ('&RC' EQ '(15)').STR15
         AIF   (T'&RC NE 'N').INVLCD
         AIF   (&RC EQ 0).RC0
         AIF   (&RC GE 1 AND &RC LE 4095).SETRC
.INVLCD  ANOP
         MNOTE 4,'RETURN CODE SPECIFICATION INVALID - IGNORED'
         AGO   .RELOAD
.STR15   ST    15,16(13)
         AGO   .RELOAD
.SETRC   LA    15,&RC
         ST    15,16(13)
         AGO   .RELOAD
.RC0     SR    15,15
         ST    15,16(13)
.RELOAD  LM    14,12,12(13)
         BR    14
         MEND
