         MACRO
&NAME    ENT13 &NO=1
         AIF   (&NO LT 1).BAD
         AIF   (&NO LT 8).START
         MNOTE 4,'INVALID NUMBER OF BASE REGISTERS - ASSUMED TO BE 7'
         AGO   .START
.BAD     MNOTE 4,'INVALID NUMBER OF BASE REGISTERS - ASSUMED TO BE 1'
.START   ANOP
&NAME    CSECT
         STM   14,12,12(13)
         ST    13,24(15)
         LA    14,20(15)
         ST    14,8(13)
         BAL   13,92(15)
         AIF   (&NO EQ 2).R2
         AIF   (&NO EQ 3).R3
         AIF   (&NO EQ 4).R4
         AIF   (&NO EQ 5).R5
         AIF   (&NO EQ 6).R6
         AIF   (&NO EQ 7).R7
         AIF   (&NO GT 7).R7
         USING *,13
         DC    18F'0'
         AGO   .EXIT
.R2      USING *,13,12
         DC    18F'0'
         LA    14,4095
         LA    12,1(14,13)
         AGO   .EXIT
.R3      USING *,13,12,11
         DC    18F'0'
         LA    14,4095
         LA    12,1(14,13)
         LA    11,1(14,12)
         AGO   .EXIT
.R4      USING *,13,12,11,10
         DC    18F'0'
         LA    14,4095
         LA    12,1(14,13)
         LA    11,1(14,12)
         LA    10,1(14,11)
         AGO   .EXIT
.R5      USING *,13,12,11,10,9
         DC    18F'0'
         LA    14,4095
         LA    12,1(14,13)
         LA    11,1(14,12)
         LA    10,1(14,11)
         LA    9,1(14,10)
         AGO   .EXIT
.R6      USING *,13,12,11,10,9,8
         DC    18F'0'
         LA    14,4095
         LA    12,1(14,13)
         LA    11,1(14,12)
         LA    10,1(14,11)
         LA    9,1(14,10)
         LA    8,1(14,9)
         AGO   .EXIT
.R7      USING *,13,12,11,10,9,8,7
         DC    18F'0'
         LA    14,4095
         LA    12,1(14,13)
         LA    11,1(14,12)
         LA    10,1(14,11)
         LA    9,1(14,10)
         LA    8,1(14,9)
         LA    7,1(14,8)
.EXIT    ANOP
         MEND
