         MACRO
&NAME    EXT13
&NAME    L     13,4(13)
         ST    15,16(13)
         LM    14,12,12(13)
         BR    14
         MEND
