         MACRO
&NAME    $EDITP  &PR,&NUM,&ED
         LCLA  &A1,&A2,&A3,&A4
         LCLB  &B1,&B2
         LCLC  &C1,&C2,&C3
         ACTR  200
         AIF   (N'&SYSLIST EQ 2 AND K'&ED EQ 0).ANOP1
         AIF   (N'&SYSLIST NE 3).MNOTE1
         AIF   ('&ED'(1,1) EQ '-' OR '&ED'(1,1) EQ '$').EDMK
.ANOP1   ANOP
&A1      SETA  &A1+1
         AIF   (K'&ED LT &A1).CONT
&A2      SETA  &A2+1
&A4      SETA  &A4+1
         AIF   ('&ED'(&A1,1) NE 'Z' AND '&ED'(&A1,1) NE '&C2').NINE
.ANOP2   ANOP
&C1      SETC  '&C1.20'
         AGO   .ANOP1
.NINE    AIF   ('&ED'(&A1,1) NE '9').PER
         AIF   (&B1).ANOP2
&B1      SETB  1
         AIF   (&A1 EQ 1).SIGNIF
         AIF   (&A1 EQ 2 AND &B2).SIGNIF
&C3      SETC  '&C1'(&A4*2-3,2)
         AIF   ('&C3' NE '20').NINE2
&C1      SETC  '&C1'(1,&A4*2-4).'2120'
         AGO   .ANOP1
.NINE2   ANOP
&C1      SETC  '&C1'(1,&A4*2-6).'21&C3.20'
         AGO   .ANOP1
.SIGNIF  ANOP
&C1      SETC  '21'
         AGO   .ANOP1
.PER     AIF   ('&ED'(&A1,1) NE '.').COMMA
&C1      SETC  '&C1.4B'
&A2      SETA  &A2-1
         AGO   .ANOP1
.COMMA   AIF   ('&ED'(&A1,1) NE 'V').SLASH
&C1      SETC  '&C1.6B'
&A2      SETA  &A2-1
         AGO   .ANOP1
.SLASH   AIF   ('&ED'(&A1,1) NE '/').DBCR
&C1      SETC  '&C1.61'
&A2      SETA  &A2-1
         AGO   .ANOP1
.DBCR    AIF   (&A1+1 NE K'&ED).MNOTE2
         AIF   ('&ED'(&A1,2) NE 'CR').DB
&C1      SETC  '&C1.C3D9'
&A2      SETA  &A2-1
         AGO   .CONT
.DB      AIF   ('&ED'(&A1,2) NE 'DB').MNOTE2
&C1      SETC  '&C1.C4C2'
&A2      SETA  &A2-1
.CONT    ANOP
&C3      SETC  '&PR'
         AIF   (L'&NUM*2-1 NE &A2).EDSIZE
.ENDCHEC ANOP
&A2      SETA  0
         AIF   (K'&C1/2+1 NE L'&PR).AREASIZ
.LAST    AIF   (&B2).EDMKEND
&NAME    MVC   &C3,=X'40&C1'
         ED    &C3,&NUM
         MEXIT
.EDSIZE  AIF   (L'&NUM*2-1 LT &A2).LONG
.SHORT   ANOP
&C1      SETC  '20&C1'
&A3      SETA  &A3+1
         AIF   (L'&NUM*2-1 GT &A2+&A3).SHORT
         AGO   .ENDCHEC
.LONG    ANOP
&C1      SETC  '&C1'(3,K'&C1-2)
&A3      SETA  &A3+1
         AIF   (L'&NUM*2-1 LT &A2-&A3).LONG
         AGO   .ENDCHEC
.AREASIZ AIF   (K'&C1/2+1 LT L'&PR).LESS
&A2      SETA  K'&C1/2+1-L'&PR
&A3      SETA  K'&C1/2+1
&C3      SETC  '&C3-&A2.(&A3)'
&B1      SETB  1
         AGO   .LAST
.LESS    ANOP
&B1      SETB  0
&A3      SETA  K'&C1/2+1
         AIF   (K'&C1/2+5 GE L'&PR).PLUSET
&C3      SETC  '&C3.(&A3)'
         AGO   .LAST
.PLUSET  ANOP
&A2      SETA  L'&PR-K'&C1/2-1
&C3      SETC  '&C3+&A2.(&A3)'
         AGO   .LAST
.EDMK    AIF   ('&ED'(1,1) EQ '-').NEG
&C2      SETC  '$'
         AGO   .C2SET
.NEG     ANOP
&C2      SETC  '-'
.C2SET   ANOP
&A1      SETA  1
&B2      SETB  1
         AGO   .ANOP1
.EDMKEND ANOP
&A1      SETA  -1
.EDMKNOP ANOP
&A1      SETA  &A1+2
         AIF   (K'&C1 LT &A1).SETA
         AIF   ('&C1'(&A1,2) EQ '21').SETAA
         AIF   ('&C1'(&A1,2) NE '4B').EDMKNOP
&A1      SETA  (&A1+1)/2
         AGO   .LA
.SETA    ANOP
&A1      SETA  (&A1+1)/2-1
         AGO   .LA
.SETAA   ANOP
&A1      SETA  (&A1+1)/2+1
.LA      ANOP
         AIF   (&B1).MINUS
&A1      SETA  &A1+&A2
         AGO   .MVC
.MINUS   ANOP
&A1      SETA  &A1-&A2
.MVC     ANOP
&NAME    MVC   &C3,=X'40&C1'
         LA    1,&PR+&A1
         EDMK  &C3,&NUM
         AIF   ('&C2' EQ '$').DOLLAR
         BNM   EDIT&SYSNDX
         BCTR  1,0
         MVI   0(1),C'-'
&C3      SETC  '&SYSNDX'
EDIT&C3  EQU   *
         MEXIT
.DOLLAR  BCTR  1,0
         MVI   0(1),C'$'
         MEXIT
.MNOTE1  MNOTE 8,'THREE OPERANDS MUST BE SPECIFIED'
         MEXIT
.MNOTE2  MNOTE 8,'INVALID EDIT PATTERN'
         MEND
