RLOAD    TITLE 'RACF LOAD ATTRIBUTES                            '
         MACRO
&NAME    REGS
         LCLA  &I
&I       SETA  0
.LUP     ANOP
R&I      EQU   &I
&I       SETA  &I+1
         AIF   (&I LE 15).LUP
         MEND
         SPACE 3
RLOAD    CSECT
RLOAD    AMODE 31
RLOAD    RMODE 24
         REGS
         USING RLOAD,R15           (ESTABLISH TEMPORARY BASE).
         B     BEGIN               SKIP OVER HEADER.
HEAD0    DC    AL1(HEADL)          EXCLUSIVE LENGTH OF HEADER.
HEAD     DC    C' RLOAD - &SYSDATE - &SYSTIME -'
         DC    C'                                         '
         DC    C'             '
         DC    C'                   '
HEADL    EQU   *-HEAD
         DROP  R15                 (DROP TEMPORARY BASE).
BEGIN    STM   R14,R12,12(R13)     SAVE CALLER'S REGISTERS
         LR    R12,R15             COPY BASE.
         USING RLOAD,R12           (TELL ASSEMBLER).
         LR    R14,R13             COPY CALLER'S SAVE AREA POINTER.
         LA    R13,SAVE            POINT TO MY SAVE AREA.
         ST    R13,8(,R14)         CHAIN ...
         ST    R14,SAVE+4          ... SAVE AREAS.
         SPACE 1
         LTR   R1,R1               ANY CPPL OR PARM POINTER?
         BZ    RETURN              B IF NOT.
         L     R2,0(,R1)           POINT TO BUFFER
         LTR   R2,R2               ANY?
         BZ    RETURN              B IF NOT.
         LH    R3,0(R2)            LOAD LENGTH.
         LTR   R3,R3               ANY?
         BZ    RETURN              B IF NOT.
         CLI   2(R2),X'00'         COMMAND PROCESSOR INVOCATION?
         BE    RLDCP
         LA    R2,2(,R2)           POINT TO PARM.
         B     PARM
RLDCP    CH    R3,=H'4'            ANY PARM?
         BE    RLDSTART            B IF NOT.
         AH    R2,2(,R2)           POINT TO ...
         LA    R2,4(,R2)           ... PARM.
PARM     OI    0(R2),C' '          UPPERCASE.
         CLI   0(R2),C'S'          SPECIAL?
         BNE   RETURN              B IF NOT.
* ------------------------------------------------------------- *
*     DO IT TO IT.                                              *
* ------------------------------------------------------------- *
RLDSTART L     R5,X'10'            POINT TO THE CVT.
         L     R5,0(,R5)           POINT TO TCB WORDS.
         L     R5,12(,R5)          POINT TO MY ASCB.
         USING ASCB,R5             (TELL ASSEMBLER).
         L     R5,ASCBASXB         POINT TO MY ASXB.
         USING ASXB,R5             (TELL ASSEMBLER).
         L     R5,ASXBSENV         POINT TO MY ACEE.
         USING ACEE,R5             (TELL ASSEMBLER).
DOIT     DS    0H
         MODESET KEY=ZERO
         OI    ACEEFLG1,ACEESPEC   GET ATTRIBUTE
         MODESET KEY=NZERO
         DROP  R5
RETURN   L     R13,SAVE+4             E
         LM    R14,R12,12(R13)          X
         SR    R15,R15                    I
         BR    R14                          T
SAVE     DS    9D
         TITLE '- MAPPING MACROS.'
         CVT   DSECT=YES           MAP THE CVT.
         IHAASCB LIST=YES          MAP THE ASCB.
         IHAASXB LIST=YES          MAP THE ASXB.
         IHAACEE                   MAP THE ACEE.
         END   RLOAD
