RLOAD    TITLE 'RACF SWITCH ATTRIBUTES                          '
*  YOU'VE GOT TO FIGURE OUT HOW THIS PROGRAM WORKS BY LOOKING AT THE
*  CODE.  SORRY.  I'M NOT GOING TO HELP YOU ANY MORE.
         MACRO
&NAME    REGS
         LCLA  &I
&I       SETA  0
.LUP     ANOP
R&I      EQU   &I
&I       SETA  &I+1
         AIF   (&I LE 15).LUP
         MEND
         SPACE 3
RLOAD    CSECT
RLOAD    AMODE 31
RLOAD    RMODE 24
         REGS
         USING RLOAD,R15           (ESTABLISH TEMPORARY BASE).
         B     BEGIN               SKIP OVER HEADER.
EYEC0    DC    AL1(EYECL)          EXCLUSIVE LENGTH OF HEADER.
EYEC     DC    C' RLOAD - &SYSDATE - &SYSTIME -'
         DC    C'     --------------------------------    '
         DC    C'             '
         DC    C'                   '
EYECL    EQU   *-EYEC
         DROP  R15                 (DROP TEMPORARY BASE).
BEGIN    STM   R14,R12,12(R13)     SAVE CALLER'S REGISTERS
         LR    R12,R15             COPY BASE.
         USING RLOAD,R12           (TELL ASSEMBLER).
         LR    R14,R13             COPY CALLER'S SAVE AREA POINTER.
         LA    R13,SAVE            POINT TO MY SAVE AREA.
         ST    R13,8(,R14)         CHAIN ...
         ST    R14,SAVE+4          ... SAVE AREAS.
         SPACE 1
         LTR   R1,R1               ANY CPPL OR PARM POINTER?
         BZ    RETURN              B IF NOT.
         L     R2,0(,R1)           POINT TO BUFFER
         LTR   R2,R2               ANY?
         BZ    RETURN              B IF NOT.
         LH    R3,0(R2)            LOAD LENGTH.
         LTR   R3,R3               ANY?
         BZ    RETURN              B IF NOT.
         CLI   2(R2),X'00'         COMMAND PROCESSOR INVOCATION?
         BE    RLDCP
         LA    R2,2(,R2)           POINT TO PARM.
         B     PARM
RLDCP    CH    R3,=H'4'            ANY PARM?
         BE    FINDDATA            B IF NOT.
         AH    R2,2(,R2)           POINT TO ...
         LA    R2,4(,R2)           ... PARM.
PARM     OI    0(R2),C' '          UPPERCASE.
         OI    1(R2),C' '          UPPERCASE.
* --- PARMS GOTTEN AT THIS POINT.  ARE WE TURNING ATTRIBUTES -------- *
* --- GLOBALLY OFF, OR GLOBALLY ON ? -------------------------------- *
SWOFF    CLI   1(R2),C'F'          ARE WE TURNING ATTRIBUTES OFF?
         BNE   SWON                NO. DEFAULT TO TURN THEM ON.
         OI    FLAG2,FLAG2OFF      PUT THE PGM INTO "TURN OFF" MODE
         B     SETFLAGS            GO SET ATTRIBUTE FLAGS
SWON     OI    FLAG2,FLAG2ON       PUT THE PROGRAM INTO "TURN ON" MODE
         TM    FLAG2,FLAG2OFF+FLAG2ON    IMPOSSIBLE - CAN'T BE BOTH
         BNO   SETFLAGS            NO PROBLEM - TEST ATTRIBS
         NI    FLAG2,255-FLAG2OFF  RESOLVE THE CONTRADICTION TO "ON"
* --- WHAT ATTRIBUTE ARE WE SWITCHING WITH THIS INVOCATION ? -------- *
SETFLAGS DS    0H
SPECIAL  CLI   0(R2),C'S'          WE WANT SPECIAL ?
         BNE   OPER                NO. GO ON
         OI    FLAG1,FLAGSPEC      SET UP FOR SPECIAL
         B     FINDDATA
OPER     CLI   0(R2),C'O'          WE WANT OPERATIONS ?
         BNE   AUDITOR             NO. GO ON
         OI    FLAG1,FLAGOPER      SET UP FOR OPERATIONS
         B     FINDDATA
AUDITOR  CLI   0(R2),C'U'          WE WANT AUDITOR ?
         BNE   DEFALTER            NO. GO ON
         OI    FLAG1,FLAGAUDT      SET UP FOR AUDITOR
         B     FINDDATA
DEFALTER CLI   0(R2),C'A'          WE WANT DEFAULT TO ALTER DATA ?
         BNE   DEFCNTL             NO. GO ON
         OI    FLAG1,FLAGALTR      SET UP FOR DEFAULT IS ALTER
         B     FINDDATA
DEFCNTL  CLI   0(R2),C'C'          WE WANT DEFAULT TO CONTROL ?
         BNE   DEFUPDT             NO. GO ON
         OI    FLAG1,FLAGCNTL      SET UP FOR DEFAULT TO CONTROL
         B     FINDDATA
DEFUPDT  CLI   0(R2),C'D'          WE WANT DEFAULT TO UPDATE DATA?
         BNE   DEFREAD             NO. GO ON
         OI    FLAG1,FLAGUPDT      SET UP FOR DEFAULT TO UPDATE DATA
         B     FINDDATA
DEFREAD  CLI   0(R2),C'R'          WE WANT DEFAULT TO READ DATA ?
         BNE   FINDDATA            NO. GO ON
         OI    FLAG1,FLAGREAD      SET UP FOR DEFAULT TO READ DATA
* --- FLAG CHOSEN, GET THE ACEE. ------------------------------------ *
FINDDATA L     R5,X'10'            POINT TO THE CVT.
         L     R5,0(,R5)           POINT TO TCB WORDS.
         L     R5,12(,R5)          POINT TO MY ASCB.
         USING ASCB,R5             (TELL ASSEMBLER).
         L     R5,ASCBASXB         POINT TO MY ASXB.
         USING ASXB,R5             (TELL ASSEMBLER).
         L     R5,ASXBSENV         POINT TO MY ACEE.
         USING ACEE,R5             (TELL ASSEMBLER).
* --- WE'RE IN THE ACEE.  NOW DO IT. -------------------------------- *
* --- FIRST, DETERMINE IF WE'RE TURNING STUFF OFF OR ON. ------------ *
DOIT     DS    0H
         TM    FLAG2,FLAG2ON
         BO    ON
         TM    FLAG2,FLAG2OFF
         BO    OFF
         B     RETURN                  NO FLAG, NO CHANGE.
* --- WE'RE TURNING STUFF ON. --------------------------------------- *
ON       DS    0H
         MODESET KEY=ZERO
SPECON   TM    FLAG1,FLAGSPEC
         BNO   OPERON
         OI    ACEEFLG1,ACEESPEC
         B     ENDMOD
OPERON   TM    FLAG1,FLAGOPER
         BNO   AUDTON
         OI    ACEEFLG1,ACEEOPER
         B     ENDMOD
AUDTON   TM    FLAG1,FLAGAUDT
         BNO   ALTRON
         OI    ACEEFLG1,ACEEAUDT
         B     ENDMOD
ALTRON   TM    FLAG1,FLAGALTR
         BNO   CNTLON
         MVI   ACEEFLG2,X'00'
         OI    ACEEFLG2,ACEEALTR
         B     ENDMOD
CNTLON   TM    FLAG1,FLAGCNTL
         BNO   UPDTON
         MVI   ACEEFLG2,X'00'
         OI    ACEEFLG2,ACEECNTL
         B     ENDMOD
UPDTON   TM    FLAG1,FLAGUPDT
         BNO   READON
         MVI   ACEEFLG2,X'00'
         OI    ACEEFLG2,ACEEUPDT
         B     ENDMOD
READON   TM    FLAG1,FLAGREAD
         BNO   ENDMOD
         MVI   ACEEFLG2,X'00'
         OI    ACEEFLG2,ACEEREAD
         B     ENDMOD
* --- WE'RE TURNING STUFF OFF. -------------------------------------- *
OFF      DS    0H
         MODESET KEY=ZERO
SPECOFF  TM    FLAG1,FLAGSPEC
         BNO   OPEROFF
         NI    ACEEFLG1,255-ACEESPEC
         B     ENDMOD
OPEROFF  TM    FLAG1,FLAGOPER
         BNO   AUDTOFF
         NI    ACEEFLG1,255-ACEEOPER
         B     ENDMOD
AUDTOFF  TM    FLAG1,FLAGAUDT
         BNO   ALTROFF
         NI    ACEEFLG1,255-ACEEAUDT
         B     ENDMOD
ALTROFF  TM    FLAG1,FLAGALTR
         BNO   CNTLOFF
         NI    ACEEFLG2,255-ACEEALTR
         OI    ACEEFLG2,ACEENONE
         B     ENDMOD
CNTLOFF  TM    FLAG1,FLAGCNTL
         BNO   UPDTOFF
         NI    ACEEFLG2,255-ACEECNTL
         OI    ACEEFLG2,ACEENONE
         B     ENDMOD
UPDTOFF  TM    FLAG1,FLAGUPDT
         BNO   READOFF
         NI    ACEEFLG2,255-ACEEUPDT
         OI    ACEEFLG2,ACEENONE
         B     ENDMOD
READOFF  TM    FLAG1,FLAGREAD
         BNO   ENDMOD
         NI    ACEEFLG2,255-ACEEREAD
         OI    ACEEFLG2,ACEENONE
ENDMOD   DS    0H
         MODESET KEY=NZERO
         DROP  R5
RETURN   L     R13,SAVE+4             E
         LM    R14,R12,12(R13)          X
         SR    R15,R15                    I
         BR    R14                          T
FLAG1    DC    X'00'
FLAGSPEC EQU   B'10000000'             SPECIAL
FLAGOPER EQU   B'01000000'             OPERATIONS
FLAGAUDT EQU   B'00100000'             AUDITOR
FLAGALTR EQU   B'00001000'             ALTER   ACEEFLG2
FLAGCNTL EQU   B'00000100'             CONTROL ACEEFLG2
FLAGUPDT EQU   B'00000010'             UPDATE  ACEEFLG2
FLAGREAD EQU   B'00000001'             READ    ACEEFLG2
FLAG2    DS    X
FLAG2ON  EQU   B'10000000'             TURN FLAG ON
FLAG2OFF EQU   B'01000000'             TURN FLAG OFF
SAVE     DS    9D
         TITLE '- MAPPING MACROS.'
         CVT   DSECT=YES           MAP THE CVT.
         IHAASCB LIST=YES          MAP THE ASCB.
         IHAASXB LIST=YES          MAP THE ASXB.
         IHAACEE                   MAP THE ACEE.
         END   RLOAD
