         MACRO
&NAME    ESAEXIT &RC=
.*
.* ESAEXIT USED IN CONJUNCTION WITH THE ESAENTRY MACRO, 06/27/89/$PMCF
.* (TM)  TAURUS SOFTWARE CONSULTANTS - PETER MCFARLAND CONSULTANT
.*
         GBLC  &WRKLEN                           GETMAIN LENGTH
         GBLC  &SPOOL                            SUBPOOL
         AIF   ('&RC'(1,1) EQ '(').RCREG         REGISTER SPECIFIED ?
         LA    R15,&RC                           LOAD RETURN CODE
         AGO   .RCOK
.RCREG   ANOP
         AIF   ('&RC' EQ '(R15)').RCOK           R15 SPECIFIED ?
         LR    R15,&RC(1)                        LOAD RETURN CODE
.RCOK    ANOP
         L     R2,4(,R13)                        --> Previous savearea
         ST    R15,D16(,R2)                      Save RETURN CODE
         LR    R1,R13                            --> of area to free.
*        STORAGE RELEASE,LENGTH=&WRKLEN,ADDR=(1),SP=&SPOOL
         STORAGE RELEASE,LENGTH=&WRKLEN,ADDR=(1),SP=&SPOOL
         LR    R13,R2                            Load R13 for LM
         LM    R14,R12,12(R13)                   Restore Callers REGS
         BR    R14                               Return to Caller ...
         MEND
