./ ADD NAME=$$$DOC   0100-03194-03194-1243-00013-00013-00000-PASCOTT
Complete documentation may be found at:

http://skycoast.us/pscott/software/mvs/

See members $$DOC     - general documentation of MVS programs

            $$MACDOC  - detailed documentation for the macros




If you require assistance, contact pscott@skycoast.us

./ ADD NAME=$PSMIVP  0100-03194-03194-1243-00047-00047-00000-PASCOTT
//SBGOLOBV JOB PSMIVP,'PSMIVP',CLASS=B,MSGCLASS=X
//*
//IVP      PROC PREFIX=SBGOLOB,     <--- YOUR USER ID
//             FMT=U
//*
//* ---------------------------------
//* STEP 1 - PSU001 (V)
//* ---------------------------------
//*
//S1       EXEC PGM=PSU001,PARM=('&FMT,EQ,VB')
//STEPLIB  DD  DSN=&PREFIX..PSM.RUNLIB,DISP=SHR
//*
//* ---------------------------------
//* STEP 2 - PSU002 (V)
//* ---------------------------------
//*
//S2       EXEC PGM=PSU002,COND=(0,NE,S1),PARM=('/',
//             'PSU002 - INSTALLATION VERIFICATION PROCEDURE/',
//             '         VARIABLE RECORD FORMAT/',
//             ' ')
//STEPLIB  DD  DSN=&PREFIX..PSM.RUNLIB,DISP=SHR
//SYSOUT   DD  SYSOUT=H,DCB=(RECFM=VB,LRECL=255,BLKSIZE=6233)
//*
//* ---------------------------------
//* STEP 3 - PSU001 (F)
//* ---------------------------------
//*
//S3       EXEC PGM=PSU001,PARM=('&FMT,EQ,FB')
//STEPLIB  DD  DSN=&PREFIX..PSM.RUNLIB,DISP=SHR
//*
//* ---------------------------------
//* STEP 4 - PSU002 (F)
//* ---------------------------------
//*
//S4       EXEC PGM=PSU002,COND=(0,NE,S3),PARM=('/',
//             'PSU002 - INSTALLATION VERIFICATION PROCEDURE/',
//             '         FIXED RECORD FORMAT/',
//             ' ')
//STEPLIB  DD  DSN=&PREFIX..PSM.RUNLIB,DISP=SHR
//SYSOUT   DD  SYSOUT=H,DCB=(RECFM=FB,LRECL=80,BLKSIZE=6160)
//*
//IVP      PEND
//*
//IVP1     EXEC IVP,FMT=VB
//IVP2     EXEC IVP,FMT=FB
//
//*
./ ADD NAME=GENCAL   0100-03194-03194-1243-00011-00011-00000-PASCOTT
PROC 0 YEAR()
/*
/* GENERATE CALENDAR FOR CURRENT (OR SPECIFIED) YEAR
/* AUTHOR: P. SCOTT
/*
CONTROL NOMSG NOLIST NOFLUSH
ALLOC F(SYSOUT) UNIT(SYSDA) TRACKS SPACE(1) DELETE REUSE
CALL 'SBGOLOB.PSM.RUNLIB(PSU004)' '&YEAR'
ISPEXEC  LMINIT DATAID(SYSOUT) DDNAME(SYSOUT) ENQ(SHR)
ISPEXEC  EDIT   DATAID(&SYSOUT)
FREE F(SYSOUT)
./ ADD NAME=PCALL    0100-03194-03194-1243-00022-00022-00000-PASCOTT
.* COPYRIGHT (C) 1988, PAUL A. SCOTT, ALL RIGHTS RESERVED
.*
         MACRO
&NAME    PCALL
.*
         COPY  PSMGBL01
.*
         LCLA  &A
&A       SETA  N'&SYSLIST(2)
.*
         AIF   (&A GT 0).L00100
&NAME    CALL  &SYSLIST(1)
         MEXIT
.*
.L00100  ANOP
&NAME    LR    1,&SP
         LA    &SP,4*&A.(,&SP)
         CALL  &SYSLIST(1),&SYSLIST(2),VL,MF=(E,(1))
         LA    14,4*&A
         SR    &SP,14
.*
         MEND
./ ADD NAME=PENTER   0100-03194-03194-1243-00356-00356-00000-PASCOTT
.* COPYRIGHT (C) 1988, PAUL A. SCOTT, ALL RIGHTS RESERVED
.*
         MACRO
&NAME    PENTER &TYPE,             PROCEDURE TYPE                      X
               &BASE=12,           BASE REGISTER(S)                    X
               &VARS=,             LOCAL VARIABLE STORAGE              X
               &STACK=,            SIZE OF STACK IN 1K BLOCKS          X
               &PREFIX=PSM         LABEL PREFIX FOR MACRO EXPANSION
.*
.*      /*/*/*/*/*/*/*/*/*/*/*/*/*/*/*/*/*/*/*/*/*/*/*/*/*/*/*/*/
.*       VARIABLE DEFINITIONS
.*      /*/*/*/*/*/*/*/*/*/*/*/*/*/*/*/*/*/*/*/*/*/*/*/*/*/*/*/*/
.*
         COPY  PSMGBL00
         COPY  PSMGBL01
         COPY  PSMGBL02
.*
         LCLA  &I                  INDEX AND COUNTER
         LCLA  &K                  STACK SIZE
         LCLA  &N                  NUMBER OF PARAMETERS (REUSED)
         LCLA  &S                  HIGHEST REGISTER USED
.*
         LCLB  &B0                 STACK DEFINED FLAG
         LCLB  &B1                 PSM MAIN LINKAGE
         LCLB  &B2                 PSM CMAIN LINKAGE
         LCLB  &B3                 PSM FUNCTION LINKAGE
         LCLB  &B4                 STANDARD LINKAGE
.*
         LCLC  &C                  CHARACTER STRING (REUSED)
         LCLC  &P                  EXPANSION PREFIX
.*
.*      /*/*/*/*/*/*/*/*/*/*/*/*/*/*/*/*/*/*/*/*/*/*/*/*/*/*/*/*/
.*       VALIDATE &STACK PARAMETER
.*      /*/*/*/*/*/*/*/*/*/*/*/*/*/*/*/*/*/*/*/*/*/*/*/*/*/*/*/*/
.*
         AIF   ((T'&STACK EQ 'O') OR (&STACK EQ 0)).L0010
&K       SETA  ((&STACK*4)*1024)
&B0      SETB  ('&TYPE' EQ 'CMAIN')
&B0      SETB  (('&TYPE' EQ 'MAIN') OR &B0)
         AIF   (&B0).L0010
         MNOTE 4,'INVALID STACK USAGE - STACK=&STACK IGNORED'
.L0010   ANOP
.*
.*      /*/*/*/*/*/*/*/*/*/*/*/*/*/*/*/*/*/*/*/*/*/*/*/*/*/*/*/*/
.*       VALIDATE &TYPE PARAMETER
.*      /*/*/*/*/*/*/*/*/*/*/*/*/*/*/*/*/*/*/*/*/*/*/*/*/*/*/*/*/
.*
&B1      SETB  ('&TYPE' EQ 'MAIN')
&B2      SETB  ('&TYPE' EQ 'CMAIN')
&B3      SETB  ('&TYPE' EQ 'FUNC')
&B4      SETB  (T'&TYPE EQ 'O')
         AIF   (NOT (&B1 OR &B2)).L0020
.*
         AIF   (&B0).L0030
         MNOTE 4,'TYPE &TYPE REQUIRES STACK - 4K ASSUMMED'
&K       SETA  4096
&B0      SETB  1
         AGO   .L0030
.*
.L0020   ANOP
         AIF   (&B1 OR &B2 OR &B3 OR &B4).L0030
         MNOTE 4,'INVALID TYPE &TYPE - STANDARD LINKAGE ASSUMED '
&B4      SETA  1
.L0030   ANOP
         AIF   (NOT &B4).L0040
&K       SETA  64                      MINIMAL STACK FOR PCALL, ETC.
&B0      SETB  1                       FORCE MINIMAL STACK
.L0040   ANOP
.*
.*
.*      /*/*/*/*/*/*/*/*/*/*/*/*/*/*/*/*/*/*/*/*/*/*/*/*/*/*/*/*/
.*       MAKE EXPANSION PREFIX SHORTER FOR CLEANER EXPANSION
.*      /*/*/*/*/*/*/*/*/*/*/*/*/*/*/*/*/*/*/*/*/*/*/*/*/*/*/*/*/
.*
&P       SETC  '&PREFIX'           SHORTEN THE VARIABLE NAME
.*
.*      /*/*/*/*/*/*/*/*/*/*/*/*/*/*/*/*/*/*/*/*/*/*/*/*/*/*/*/*/
.*       SAVE AREA STRUCTURE DEFINITION
.*      /*/*/*/*/*/*/*/*/*/*/*/*/*/*/*/*/*/*/*/*/*/*/*/*/*/*/*/*/
.*
         AIF   (&PSMSVA AND ('&P' EQ 'PSM')).L0060
.L0050   ANOP
.*      - - - - - - - - - - - - - - - - - - - - - - - - - - - - -
.*       S T A R T   O F   S A V E   A R E A   S T R U C T U R E
.*      - - - - - - - - - - - - - - - - - - - - - - - - - - - - -
&PSMSVA  SETB  1
&P.SVA   DSECT ,                   SAVE AREA STRUCTURE
&P.PLI   DS    F                   UNUSED
&P.HSA   DS    A                   HIGH SAVE AREA PTR
&P.LSA   DS    A                   LOW SAVE AREA PTR
&P.RET   DS    A                   RETURN ADDRESS
&P.EPA   DS    A                   ENTRY POINT ADDRESS
&P.GPR0  DS    A                   REGISTER 0
&P.GPR1  DS    A                   REGISTER 1
&P.GPR2  DS    A                   REGISTER 2
&P.GPR3  DS    A                   REGISTER 3
&P.GPR4  DS    A                   REGISTER 4
&P.GPR5  DS    A                   REGISTER 5
&P.GPR6  DS    A                   REGISTER 6
&P.GPR7  DS    A                   REGISTER 7
&P.GPR8  DS    A                   REGISTER 8
&P.GPR9  DS    A                   REGISTER 9
&P.GPR10 DS    A                   REGISTER 10
&P.GPR11 DS    A                   REGISTER 11
&P.GPR12 DS    A                   REGISTER 12
&P.GDS   DS    A                   GLOBAL DATA STRUCTURE PTR
&P.LDS   DS    A                   LOCAL DATA STRUCTURE PTR
&P.TOS   DS    A                   TOP OF STACK PTR
&P.BOS   DS    A                   BOTTOM OF STACK PTR
&P.SVALN EQU   *-&P.SVA            LENGTH OF SAVE AREA STRUCTURE
&P.LVARS DS    0F                  START OF LOCAL VARIABLES
.*      - - - - - - - - - - - - - - - - - - - - - - - - - - - - -
.*       E N D   O F   S A V E   A R E A   S T R U C T U R E
.*      - - - - - - - - - - - - - - - - - - - - - - - - - - - - -
.L0060   ANOP
.*
.*      /*/*/*/*/*/*/*/*/*/*/*/*/*/*/*/*/*/*/*/*/*/*/*/*/*/*/*/*/
.*       COMPUTE HIGHEST REGISTER USED (FROM BASE REGS DEFINED)
.*      /*/*/*/*/*/*/*/*/*/*/*/*/*/*/*/*/*/*/*/*/*/*/*/*/*/*/*/*/
.*
&S       SETA  0                   START WITH NO HIGHEST
.*
.*       SCAN THE CODE BASE REGISTERS
.*
&N       SETA  N'&BASE             NUMBER OF BASE REGISTERS
&I       SETA  1                   START WITH FIRST ONE
.*
.L0070   ANOP
         AIF   (&I GT &N).L0090    WHILE (UNSCANNED REGISTERS)
         PSMRVAL &BASE(&I)              GET VALUE OF REGISTER
         AIF   (&S GE &PSMRVAL).L0080   IF HIGHER THAN PREVIOUS
&S       SETA  &PSMRVAL                    SAVE REGISTER
.L0080   ANOP                           ENDIF
&I       SETA  &I+1                     INCREMENT REGISTER INDEX
         AGO   .L0070              END WHILE
.L0090   ANOP
.*
.*       SCAN THE DATA BASE REGISTERS
.*
&N       SETA  N'&VARS(3)          NUMBER OF BASE REGISTERS
&I       SETA  1                   START WITH FIRST ONE
.*
.L0100   ANOP
         AIF   (&I GT &N).L0120    WHILE (UNSCANNED REGISTERS)
         PSMRVAL &VARS(3,&I)            GET VALUE OF REGISTER
         AIF   (&S GE &PSMRVAL).L0110   IF HIGHER THAN PREVIOUS
&S       SETA  &PSMRVAL                    SAVE REGISTER
.L0110   ANOP                           ENDIF
&I       SETA  &I+1                     INCREMENT REGISTER INDEX
         AGO   .L0100              END WHILE
.L0120   ANOP
.*
.*      /*/*/*/*/*/*/*/*/*/*/*/*/*/*/*/*/*/*/*/*/*/*/*/*/*/*/*/*/
.*       GENERATE REGISTER EQUATES
.*      /*/*/*/*/*/*/*/*/*/*/*/*/*/*/*/*/*/*/*/*/*/*/*/*/*/*/*/*/
.*
         AIF   (&PSMREGS).L0170    SKIP IF ALREADY DEFINED
         AIF   (&REGS).L0160       ISSUE WARNING IF EXTERNALLY DEFINED
.*
&PSMREGS SETB  1                   MARK AS DEFINED
&REGS    SETB  1                   MARK AS DEFINED
.*
&I       SETA  0
.L0140   ANOP                         REPEAT
.*                                       IF ( NOT SPECIAL REGISTER )
         AIF   ((&I EQ &SP) OR (&I EQ &BP)).L0150
.*       AIF   ((&I GT &S) AND NOT (&I LT &BP)).L0150
R&I      EQU   &I                           GENERATE REGISTER EQUATE
.L0150   ANOP                            ENDIF
&I       SETA  &I+1                      BUMP TO NEXT REGISTER
         AIF   (&I LE &HIREG).L0140   UNTIL ( NO MORE REGISTERS )
         AGO   .L0170                 SKIP WARNING
.*
.L0160   ANOP
         MNOTE 4,'USE REGISTERS &SP AND &BP WITH CAUTION!!!'
.*
.L0170   ANOP
.*
.*      /*/*/*/*/*/*/*/*/*/*/*/*/*/*/*/*/*/*/*/*/*/*/*/*/*/*/*/*/
.*       DROP PREVIOUS BASE REGISTERS
.*      /*/*/*/*/*/*/*/*/*/*/*/*/*/*/*/*/*/*/*/*/*/*/*/*/*/*/*/*/
.*
.*       DROP CODE BASE REGISTERS
.*
         AIF   ('&PSMBSEC(2)' EQ '').L0180
         DROP  &PSMBSEC(2)
.*
.*       DROP DATA BASE REGISTERS
.*
.L0180   ANOP
         AIF   ('&PSMBSED' EQ '').L0190
         DROP  &PSMBSED
.*
.L0190   ANOP
.*
.*      /*/*/*/*/*/*/*/*/*/*/*/*/*/*/*/*/*/*/*/*/*/*/*/*/*/*/*/*/
.*       INITIALIZE THE PENTER/PEXIT GLOBAL VARIABLES
.*      /*/*/*/*/*/*/*/*/*/*/*/*/*/*/*/*/*/*/*/*/*/*/*/*/*/*/*/*/
.*
&PSMCNAM SETC  ''                  CLEAR THE CSECT NAME
&PSMBSEC(1) SETC ''                CLEAR THE FIRST CODE BASE REGISTER
&PSMBSEC(2) SETC ''                CLEAR THE CODE BASE REGISTER LIST
&PSMBSED SETC  ''                  CLEAR THE DATA BASE
&PSMBSEH SETC  ''                  CLEAR THE HIGHEST REGISTER USED
&PSMSTKS SETC  ''                  CLEAR THE STACK SIZE
.*
&PSMCNAM SETC  '&NAME'             INITIALIZE THE CSECT NAME
.*
.*      /*/*/*/*/*/*/*/*/*/*/*/*/*/*/*/*/*/*/*/*/*/*/*/*/*/*/*/*/
.*       GENERATE THE CSECT PREFACE AREA
.*      /*/*/*/*/*/*/*/*/*/*/*/*/*/*/*/*/*/*/*/*/*/*/*/*/*/*/*/*/
.*
         PSMRLSE ,
&N       SETA  (K'&PSMRLSE+3)/4*4
.*
.*      - - - - - - - - - - - - - - - - - - - - - - - - - - - - -
.*       S T A R T   O F   C S E C T   P R E F A C E
.*      - - - - - - - - - - - - - - - - - - - - - - - - - - - - -
.*       THE CSECT ID SECTION IS MAPPED BY MACRO PSMCPREF
.*       ANY CHANGES TO HERE SHOULD BE DUPLICATED THERE
.*
&NAME    CSECT ,
.*
&C       SETC  ''
         AIF   (NOT &B2).L0200
         ENTRY MAIN
&C       SETC  'MAIN'
.L0200   ANOP
.*
&I       SETA  36+&N+(&B0*4)+(&B2*4)
&C       B     &I.(,15)            BRANCH AROUND CSECT PREFACE
&I       SETA  27+&N
         DC    AL1(&I.)            . LENGTH OF DUMP TEXT
         DC    CL9'&NAME'          . CSECT NAME
         DC    CL9'&SYSDATE'       . ASSEMBLY DATE
         DC    CL9'&SYSTIME'       . ASSEMBLY TIME
         AIF   (&N LT 1).L0210
         DC    CL&N.'&PSMRLSE'     . PRODUCT RELEASE ID
.L0210   ANOP
&C       SETC  '0'
         AIF   (T'&VARS(2) EQ 'O').L0220
&C       SETC  '&VARS(2)'
.L0220   ANOP
&C       SETC  '((&P.SVALN+&C+7)/8)*8'
         DC    A(&C)               . INITIAL STACK OFFSET
.*
.*       GENERATE STACK CONSTANTS
.*
         AIF   (NOT &B0).L0230
&PSMSTKS SETC '&K'
         DC    AL1(&SSID),AL3(&K)  . STACK ALLOCATION
.*
.*       GENERATE PSM INITIALIZATION MODULE ADDRESS CONSTANT
.*
         AIF   (NOT &B2).L0230
         DC    V(PSMINIT)          . PSM INITIALIZATION
.*      - - - - - - - - - - - - - - - - - - - - - - - - - - - - -
.*       E N D   O F   C S E C T   P R E F A C E
.*      - - - - - - - - - - - - - - - - - - - - - - - - - - - - -
.L0230   ANOP
.*
.*      /*/*/*/*/*/*/*/*/*/*/*/*/*/*/*/*/*/*/*/*/*/*/*/*/*/*/*/*/
.*       SAVE REGISTERS FOR STANDARD LINKAGE
.*      /*/*/*/*/*/*/*/*/*/*/*/*/*/*/*/*/*/*/*/*/*/*/*/*/*/*/*/*/
.*
         STM   14,&S,12(&BP)
.*
.*      /*/*/*/*/*/*/*/*/*/*/*/*/*/*/*/*/*/*/*/*/*/*/*/*/*/*/*/*/
.*       ESTABLISH CODE BASE REGISTERS
.*      /*/*/*/*/*/*/*/*/*/*/*/*/*/*/*/*/*/*/*/*/*/*/*/*/*/*/*/*/
.*
&N       SETA  N'&BASE             NUMBER OF BASE REGISTERS
&C       SETC  '&BASE(1)'          FIRST BASE REGISTER
&PSMBSEC(1) SETC '&C'              SAVE FIRST BASE REGISTER
.*
         LR    &BASE(1),15
         AIF   (&N LE 1).L0250     IF ( MORE THAN ONE REGISTER)
&I       SETA  1                      SET INDEX TO FIRST REGISTER
         LA    &BASE(&N),4095
.L0240   ANOP
         AIF   (&I+1 GT &N).L0250     WHILE ( MORE REGISTERS )
&I       SETA  &I+1                      GET NEXT REGISTER
         LA    &BASE(&I),1(&BASE(&N),&BASE(&I-1))
&C       SETC  '&C.,&BASE(&I)'           COLLECT REGISTERS
         AGO   .L0240                 END WHILE
.L0250   ANOP                      ENDIF
&PSMBSEC(2) SETC '&C'              SAVE BASE REGISTER LIST
         USING &NAME,&C
.*
.*      /*/*/*/*/*/*/*/*/*/*/*/*/*/*/*/*/*/*/*/*/*/*/*/*/*/*/*/*/
.*       COMPLETE STANDARD LINKAGE
.*      /*/*/*/*/*/*/*/*/*/*/*/*/*/*/*/*/*/*/*/*/*/*/*/*/*/*/*/*/
.*
         LR    2,&BP
&N       SETA  (K'&PSMRLSE+3)/4*4
         AIF   (&B1 OR &B4).L0260
         LR    &BP,&SP
         AGO   .L0270
.*
.L0260   ANOP
&I       SETA  36+&N
         L     0,&I.(,&BASE(1))
&I       SETA  &I-4
         AL    0,&I.(,&BASE(1))
         GETMAIN R,LV=(0)
         LR    &BP,1
         LR    &SP,1
.*
.L0270   ANOP
         LA    0,0(,&BP)
&I       SETA  32+&N
         L     1,&I.(,&BASE(1))
         LR    14,0
         SR    15,15
         MVCL  0,14
.*
         AIF   (&B1 OR &B4).L0280
         MVC   &P.GDS-&P.SVA(&P.LVARS-&P.GDS,&BP),&P.GDS-&P.SVA(2)
.L0280   ANOP
.*
         ST    2,4(,&BP)
         ST    &BP,8(,2)
         LM    1,2,24(2)
         AIF   (&B4).L0290
         A     &SP,&I.(,&BASE(1))
.L0290   ANOP
.*
.*      /*/*/*/*/*/*/*/*/*/*/*/*/*/*/*/*/*/*/*/*/*/*/*/*/*/*/*/*/
.*       ESTABLISH DATA BASE REGISTERS
.*      /*/*/*/*/*/*/*/*/*/*/*/*/*/*/*/*/*/*/*/*/*/*/*/*/*/*/*/*/
.*
         AIF   (T'&VARS EQ 'O').L0340
&C       SETC  '&BP'
&N       SETA  N'&VARS(3)
         AIF   (&N LT 1).L0330
&I       SETA  0
         LA    &VARS(3,&N),4095
.L0300   ANOP
&I       SETA  &I+1
         AIF   (&I GT &N).L0330
         AIF   (&I GT 1).L0310
         LA    &VARS(3,&I),1(&VARS(3,&N),&BP)
         AGO   .L0320
.L0310   ANOP
         LA    &VARS(3,&I),1(&VARS(3,&N),&VARS(3,&I-1))
.L0320   ANOP
&C       SETC  '&C.,&VARS(3,&I)'
         AGO   .L0300
.L0330   ANOP
         USING &VARS(1)-&P.SVALN,&C
&PSMBSED SETC  '&C'
.L0340   ANOP
.*
&PSMBSEH SETC  '&S'
.*
         MEND
./ ADD NAME=PEXIT    0100-03194-03194-1243-00101-00101-00000-PASCOTT
.* COPYRIGHT (C) 1988, PAUL A. SCOTT, ALL RIGHTS RESERVED
.*
         MACRO
&NAME    PEXIT &RC=0               RETURN CODE
.*
.*      /*/*/*/*/*/*/*/*/*/*/*/*/*/*/*/*/*/*/*/*/*/*/*/*/*/*/*/*/
.*       VARIABLE DEFINITIONS
.*      /*/*/*/*/*/*/*/*/*/*/*/*/*/*/*/*/*/*/*/*/*/*/*/*/*/*/*/*/
.*
         COPY  PSMGBL00
         COPY  PSMGBL01
         COPY  PSMGBL02
.*
         LCLA  &A,&I,&J,&N
         LCLC  &C
.*
.*      /*/*/*/*/*/*/*/*/*/*/*/*/*/*/*/*/*/*/*/*/*/*/*/*/*/*/*/*/
.*       SETUP
.*      /*/*/*/*/*/*/*/*/*/*/*/*/*/*/*/*/*/*/*/*/*/*/*/*/*/*/*/*/
.*
.L1000   ANOP
.*
&N       SETA  (K'&PSMRLSE+3)/4*4
&C       SETC  '&PSMCNAM'
.*
.*      /*/*/*/*/*/*/*/*/*/*/*/*/*/*/*/*/*/*/*/*/*/*/*/*/*/*/*/*/
.*       GENERATE INITIAL RETURN CODE
.*      /*/*/*/*/*/*/*/*/*/*/*/*/*/*/*/*/*/*/*/*/*/*/*/*/*/*/*/*/
.*
&C       CSECT ,
&NAME    LR    1,&BP
         L     &BP,4(,&BP)
.*
.*      /*/*/*/*/*/*/*/*/*/*/*/*/*/*/*/*/*/*/*/*/*/*/*/*/*/*/*/*/
.*       STORE SPECIFIED REGISTERS IN CALLERS SAVE AREA
.*      /*/*/*/*/*/*/*/*/*/*/*/*/*/*/*/*/*/*/*/*/*/*/*/*/*/*/*/*/
.*
&A       SETA  N'&SYSLIST
&I       SETA  1
.L1020   ANOP
         AIF   (&I GT &A).L1060
         PSMROP &SYSLIST(&I)
         AIF   (&PSMROP1 GT &PSMROP2).L1040
         AIF   (&PSMROP1 LT 0 OR &PSMROP1 GT 12).L1040
         AIF   (&PSMROP2 LT 0 OR &PSMROP1 GT 12).L1040
&J       SETA  20+(&PSMROP1*4)
         AIF   (&PSMROPC GT 1).L1030
         ST    &PSMROP1,&J.(,&BP)
         AGO   .L1050
.L1030   ANOP
         STM   &PSMROP1,&PSMROP2,&J.(&BP)
         AGO   .L1050
.L1040   ANOP
         MNOTE 4,'REGISTER &SYSLIST(&I) OUT OF RANGE, IGNORED.'
.L1050   ANOP
&I       SETA  &I+1
         AGO   .L1020
.*
.*      /*/*/*/*/*/*/*/*/*/*/*/*/*/*/*/*/*/*/*/*/*/*/*/*/*/*/*/*/
.*       STORE RETURN CODE
.*      /*/*/*/*/*/*/*/*/*/*/*/*/*/*/*/*/*/*/*/*/*/*/*/*/*/*/*/*/
.*
.L1060   ANOP
         AIF   ('&RC' EQ '').L1090
         AIF   ('&RC'(1,1) EQ '(').L1070
         LA    15,&RC
         AGO   .L1080
.L1070   ANOP
.*
&C       SETC   '&RC'(2,K'&RC-2)
         PSMRVAL &C
         AIF   (&PSMRVAL EQ 15).L1080
         LR    15,&PSMRVAL
.*
.L1080   ANOP
         ST    15,16(,&BP)
.*
.*      /*/*/*/*/*/*/*/*/*/*/*/*/*/*/*/*/*/*/*/*/*/*/*/*/*/*/*/*/
.*       FREE THE STACK (IF ONE IS THERE)
.*      /*/*/*/*/*/*/*/*/*/*/*/*/*/*/*/*/*/*/*/*/*/*/*/*/*/*/*/*/
.*
.L1090   ANOP
         AIF   (T'&PSMSTKS EQ 'O').L1100
&I       SETA  36+&N
         L     0,&I.(,&PSMBSEC(1))
&I       SETA  &I-4
         AL    0,&I.(,&PSMBSEC(1))
         FREEMAIN R,LV=(0),A=(1)
.*
.*      /*/*/*/*/*/*/*/*/*/*/*/*/*/*/*/*/*/*/*/*/*/*/*/*/*/*/*/*/
.*       RETURN TO CALLER
.*      /*/*/*/*/*/*/*/*/*/*/*/*/*/*/*/*/*/*/*/*/*/*/*/*/*/*/*/*/
.*
.L1100   ANOP
.*       RETURN (14,&PSMBSEH)
         LM    14,&PSMBSEH,12(&BP)
         OI    15(&BP),1           MARK RETURN
         BR    14
.*
         LTORG ,
         MEND
./ ADD NAME=PLINK    0100-03194-03194-1243-00017-00017-00000-PASCOTT
.* COPYRIGHT (C) 1988, PAUL A. SCOTT, ALL RIGHTS RESERVED
.*
         MACRO
&NAME    PLINK
.*
         COPY  PSMGBL01
.*
         LCLA  &A
&A       SETA  N'&SYSLIST(2)
.*
&NAME    LR    1,&SP
         LA    &SP,4*&A.(,&SP)
         LINK  EP=&SYSLIST(1),PARAM=&SYSLIST(2),VL=1,MF=(E,(1))
         LA    14,4*&A
         SR    &SP,14
.*
         MEND
./ ADD NAME=POPREG   0100-03194-03194-1243-00057-00057-00000-PASCOTT
.* COPYRIGHT (C) 1988, PAUL A. SCOTT, ALL RIGHTS RESERVED
.*
         MACRO
&NAME    POPREG
.*
         COPY  PSMGBL01
         COPY  PSMGBL02
         LCLA  &I,&J,&K,&N
.*
         AIF   (T'&NAME EQ 'O').A000
&NAME    DS    0H
.A000    ANOP
.*
&N       SETA  N'&SYSLIST
         AIF   (&N GT 0).A010
         MEXIT
.*
.* COMPUTE AMOUNT OF STACK SPACE TO RELEASE
.*
.A010    ANOP
&I       SETA  1
&K       SETA  0
.A020    ANOP
         PSMROP &SYSLIST(&I)
&I       SETA  &I+1
&K       SETA  &K+&PSMROPC
         AIF   (&I LE &N).A020
.*
.* RELEASE STACK SPACE
.*
.B010    ANOP
         PSMRVAL &SYSLIST(1,1)
&PSMROP1 SETA  &PSMRVAL
         LA    &PSMROP1,4*&K
         SR    &SP,&PSMROP1
.*
.* POP REGISTERS FROM STACK
.*
.C010    ANOP
&I       SETA  &N
&J       SETA  4*&K
.C020    ANOP
         PSMROP &SYSLIST(&I)
         AIF   (&PSMROPC GT 1).C030
&J       SETA  &J-4
         L     &PSMROP1,&J.(,&SP)
         AGO   .C060
.*
.C030    ANOP
&J       SETA  &J-(4*&PSMROPC)
         LM    &PSMROP1,&PSMROP2,&J.(&SP)
.*
.C060    ANOP
&I       SETA  &I-1
         AIF   (&I GE 1).C020
.*
         MEND
./ ADD NAME=PSMASYM  0100-03194-03194-1243-00010-00010-00000-PASCOTT
.* COPYRIGHT (C) 1988, PAUL A. SCOTT, ALL RIGHTS RESERVED
.*
         MACRO
         PSMASYM
.*
         COPY  PSMGBL02
.*
&PSMASYM SETA  &SYSLIST(1,1)
.*
         MEND
./ ADD NAME=PSMCPREF 0100-03194-03194-1243-00039-00039-00000-PASCOTT
.* COPYRIGHT (C) 1988, PAUL A. SCOTT, ALL RIGHTS RESERVED
.*
         MACRO
&NAME    PSMCPREF &PREFIX=PSM
.*
         LCLA  &N
         LCLC  &P
.*
&P       SETC  '&PREFIX'
.*
         AIF   (T'&NAME NE 'O').L0100
&NAME    SETC  '&P'.'CPREF'
.L0100   ANOP
.*
.L0200   ANOP
.*
&NAME    DSECT ,
&P.PJUMP DS    F                   BRANCH AROUND CSECT PREFIX
*
*                                  ID STRING
&P.PLENG DS    FL1                 LENGTH OF IDENTIFIER STRING
&P.PID   DS    0C                  . S
&P.PNAME DS    CL8,CL1             . CSECT NAME
&P.PDATE DS    0CL8                . ASSEMBLY DATE
&P.PDTEM DS    CL2,CL1               . MONTH
&P.PDTED DS    CL2,CL1               . DAY
&P.PDTEY DS    CL2,CL1               . YEAR
&P.PTIME DS    0CL8                . ASSEMBLY TIME
&P.PTMEH DS    CL2,CL1               . HOUR
&P.PTMEM DS    CL2,CL1               . MINUTES
&P.PTMES DS    CL2,CL1               . SECONDS
.*
&P.PRLSE DS    0C                  . PRODUCT RELEASE
.*
&P.PLOCL DS    FL4                 SIZE OF SVA PLUS LOCAL VARIABLES
         DS    FL1                 STACK SUBPOOL ID
         DS    FL3                 SIZE OF STACK
         DS    A                   PTR TO PSMINIT MODULE
.*
./ ADD NAME=PSMGBL00 0100-03194-03194-1243-00010-00010-00000-PASCOTT
.* COPYRIGHT (C) 1988, PAUL A. SCOTT, ALL RIGHTS RESERVED
.*
         GBLB  &PSMREGS            PSM REGISTERS DEFINED FLAG
         GBLB  &REGS               IBM REGISTERS DEFINED FLAG
         GBLC  &PSMBSEC(2)         PROCEDURE BASE REGISTERS
         GBLC  &PSMBSED            AUTO STORAGE BASE REGISTERS
         GBLC  &PSMBSEH            HIGHEST REGISTER USED
         GBLC  &PSMCNAM            PROCEDURE NAME
         GBLC  &PSMSTKS            STACK SIZE
.*
./ ADD NAME=PSMGBL01 0100-03194-03194-1243-00016-00016-00000-PASCOTT
.* COPYRIGHT (C) 1988, PAUL A. SCOTT, ALL RIGHTS RESERVED
.*
         GBLA  &SSID               STACK SUBPOOL ID
         GBLA  &SP                 STACK POINTER
         GBLA  &BP                 STACK BASE POINTER
         GBLA  &HIREG              HIGHEST REGISTER AVAILABLE
.*
         GBLB  &PSMSVA             SAVE AREA DEFINED FLAG
         GBLC  &PSMSIG             UNIQUE SIGNATURE
.*
&SSID    SETA  127                 INITIALIZE STACK SUBPOOL ID
&SP      SETA  3                   INITIALIZE STACK POINTER
&BP      SETA  13                  INITIALIZE STACK BASE POINTER
&HIREG   SETA  15                  INITIALIZE HI-REG VALUE
.*
&PSMSIG  SETC  'CAFE'
./ ADD NAME=PSMGBL02 0100-03194-03194-1243-00013-00013-00000-PASCOTT
.* COPYRIGHT (C) 1988, PAUL A. SCOTT, ALL RIGHTS RESERVED
.*
.*             SYMBOL-NAME         MACRO-ID   COMMENT
.*             _________________   ________   ________________________
.*
         GBLA  &PSMRVAL            PSMRVAL  - RETURN REGISTER VALUE
         GBLA  &PSMROPC            PSMROP   - RETURN REGISTER COUNT
         GBLA  &PSMROP1,&PSMROP2   PSMROP   - RETURN REGISTER OPERANDS
         GBLA  &PSMASYM            PSMASYM  - RETURN VALUE
.*
         GBLC  &PSMSUBP            PSMSUBP  - RETURN VALUE
         GBLC  &PSMRLSE            PSMRLSE  - RETURN VALUE
.*
./ ADD NAME=PSMGDS   0100-03194-03194-1243-00070-00070-00000-PASCOTT
         MACRO
         PSMGDS &PREFIX=GDS
         LCLC   &P
&P       SETC   '&PREFIX'
.*****************************************************************
.*       PSEUDO-STACK MACHINE GLOBAL DATA STRUCTURE              *
.*---------------------------------------------------------------*
.* NAME:            GDS                                          *
.* POINTED TO BY:   LABEL PSMGDS IN PSMSVA (SAVE AREA +72)       *
.* DESCRIPTION:     THE GDS IS GENERATED DURING PENTER PROCESSING*
.*                  IF  TYPE HAS BEEN CODED AS MAIN.  IN THEORY  *
.*                  THE GDS IS AN ADDRESS SPACE LEVEL CONTROL    *
.*                  BLOCK WHILE THE LDS IS AT THE TASK LEVEL.    *
.*                  INFORMATION IN THE GDS IS LIMITED TO THAT    *
.*                  WHICH COULD BE CONSIDERED APPLICABLE OR      *
.*                  COMMON TO ALL TASKS WITHIN THE ADDRESS SPACE *
.*                                                               *
.*                MAIN TASK                                      *
.*                 ________                   SUB TASK           *
.*                | GDS    |<-----.  <--------------------.      *
.*                |--------|      |           ________    |      *
.*                | LDS    |<----.|          | LDS    |   |      *
.*                |--------|     ||          |--------|   |      *
.*                | PSMSVA |=====-'          | PSMSVA |---'      *
.*                |--------|                 |--------|          *
.*                | STACK  |                 | STACK  |          *
.*                |________|                 |________|          *
.*                                                               *
.*                                                               *
.*****************************************************************
GDS      DSECT ,
*
&P.ID    DS    CL8'PSMGDS'         EYE CATCHER
*
&P.IN    DS    A(0)                STANDARD INPUT WORK AREA
&P.OUT   DS    A(0)                STANDARD OUTPUT WORK AREA
&P.ERROR DS    A(0)                STANDARD ERROR WORK AREA
&P.PRINT DS    A(0)                STANDARD PRINT WORK AREA
*
&P.ARGC  DS    F'0'                ARGUMENT COUNT
&P.ARGV  DS    A(0)                PTR TO LIST OF ARGUMENT PTRS
&P.ENVPT DS    A(0)                PTR TO ENVIRONMENT STRINGS
*
&P.HEAPF DS    A(0)                PTR TO FIRST HEAP BLOCK (PSMHEAP)
&P.HEAPL DS    A(0)                PTR TO LAST  HEAP BLOCK
&P.HLOCK DS    A(0)                HEAP LOCK (SERIALIZATION WITH CS)
*
&P.ENVSW DS    X                   ENVIRONMENT SWITCH
&P.ESXA  DS    X'01'               .... ...1   MVS/XA (SP VERSION 2)
&P.ESJ2  DS    X'02'               .... ..1.   JES2
&P.ESJ3  DS    X'04'               .... .1..   JES3
&P.ESTSO DS    X'08'               .... 1...   TSO
&P.ESSPF DS    X'10'               ...1 ....   TSO/ISPF
&P.ESJOB DS    X'20'               ..1. ....   JOB
&P.ESSTC DS    X'40'               .1.. ....   STARTED TASK
&P.NAME  DS    CL8                 ADDRESS SPACE NAME
&P.JOBID DS    CL8                 ADDRESS SPACE JOBID
&P.SSNAM DS    CL4                 SUBSYSTEM NAME
&P.SPVER DS    CL8                 MVS/SP VERSION (CVTPRODN)
*
*  PSM LOCKS ARE SERIALIZED USING COMPARE AND SWAP.  THE VALUE
*  SWAPPED IN X'FFFFFFFF' IF THE LOCK IS HELD AND ZERO IF IT IS
*  NOT.  ALL LOCKS MUST PROVIDE 2 WORDS.
*
&P.LOCKS DS    CL8'LOCKS>'         START OF PSM LOCKS SECTION
&P.HPLOC DS    F                   HEAP LOCK
&P.HPECB DS    F                   HEAP LOCK ECB IF QUEUED
*
&P.LENG  EQU   *-PSMGDS            LENGTH OF GLOBAL DATA AREA
         MEND
./ ADD NAME=PSMRLSE  0100-03194-03194-1243-00017-00017-00000-PASCOTT
.* COPYRIGHT (C) 1988, PAUL A. SCOTT, ALL RIGHTS RESERVED
.*
         MACRO
         PSMRLSE
.*
         COPY  PSMGBL02
.*
.*      /*/*/*/*/*/*/*/*/*/*/*/*/*/*/*/*/*/*/*/*/*/*/*/*/*/*/*/*/
.*       THIS MACRO DEFINES THE PRODUCT NAME AND RELEASE DATA
.*       WHICH WILL BE INCLUDED IN THE CSECT PREFIX AREA.
.*       KEEP A COPY OF THIS MACRO IN EACH PRODUCT MACRO LIBRARY
.*       AND CHANGE THE GLOBAL VARIABLE &PSMRLSE AS APPROPRIATE.
.*      /*/*/*/*/*/*/*/*/*/*/*/*/*/*/*/*/*/*/*/*/*/*/*/*/*/*/*/*/
.*
&PSMRLSE SETC  'PSM 1.0.0'
.*
         MEND
./ ADD NAME=PSMROP   0100-03194-03194-1243-00037-00037-00000-PASCOTT
.* COPYRIGHT (C) 1988, PAUL A. SCOTT, ALL RIGHTS RESERVED
.*
         MACRO
         PSMROP
.*
         COPY  PSMGBL02
         LCLA  &A
.*
.A010    ANOP
.*
&PSMROPC SETA  0
&PSMROP1 SETA  17
&PSMROP2 SETA  17
&A       SETA  N'&SYSLIST(1)
         AIF   (&A LT 1).A040
.*
         AIF   (&A GT 1).A020
         PSMRVAL &SYSLIST(1,1)
&PSMROP1 SETA  &PSMRVAL
&PSMROP2 SETA  &PSMRVAL
&PSMROPC SETA  1
         AGO   .A040
.*
.A020    ANOP
         PSMRVAL &SYSLIST(1,1)
&PSMROP1 SETA  &PSMRVAL
         PSMRVAL &SYSLIST(1,2)
&PSMROP2 SETA  &PSMRVAL
         AIF   (&PSMROP1 GT &PSMROP2).A030
&PSMROPC SETA  1+(&PSMROP2-&PSMROP1)
         AGO   .A040
.A030    ANOP
&PSMROPC SETA  (1+(15-&PSMROP1))+(1+&PSMROP2)
.*
.A040    ANOP
.*
         MEND
./ ADD NAME=PSMROPS  0100-03194-03194-1243-00039-00039-00000-PASCOTT
.* COPYRIGHT (C) 1988, PAUL A. SCOTT, ALL RIGHTS RESERVED
         MACRO
&LABEL   PSMROPS
.*
         COPY  PSMGBL02
         LCLA  &I,&K
         LCLC  &C,&R1,&R2
.*
.A010    ANOP
.*
&C       SETC  '&SYSLIST(1,1)'
         AIF   ('&C'(1,1) NE '(').A020
&C       SETC  '&C'(2,K'&C-2)
.*
.A020    ANOP
&I       SETA  1
&K       SETA  K'&C
.*
.A030    ANOP
         AIF   (&I GT &K).A040
         AIF   ('&C'(&I,1) EQ ',').A040
&I       SETA  &I+1
         AGO   .A030
.*
.A040    ANOP
&R1      SETC  '0'
&R2      SETC  '0'
.*
         AIF   ('&C'(1,1) EQ ',').A050
&R1      SETC  '&C'(1,&I-1)
.*
.A050    ANOP
         AIF   (&I GE &K).A060
&R2      SETC  '&C'(&I+1,&K-&I)
.*
.A060    ANOP
         PSMROP  (&R1,&R2)
.*
         MEND
./ ADD NAME=PSMRVAL  0100-03194-03194-1243-00025-00025-00000-PASCOTT
.* COPYRIGHT (C) 1988, PAUL A. SCOTT, ALL RIGHTS RESERVED
.*
         MACRO
         PSMRVAL
.*
         COPY  PSMGBL02
         LCLC  &C
.*
&C       SETC  '&SYSLIST(1,1)'
         AIF   ('&C'(1,1) NE 'R').A010
&C       SETC  '&C'(2,K'&C-1)
.*
.A010    ANOP
         PSMASYM &C
.*
&PSMRVAL SETA  &PSMASYM
.*