//YA3324UE JOB 'EACARBONE.SH28205610*110A044         015  1001007037',
//  MSGLEVEL=1,MSGCLASS=H,
//  REGION=1024K,TIME=010,
//  NOTIFY=YA3324
//*MAIN ORG=RMY24,CLASS=L
//*********************************  (YA3324.IMA.RECORD(ADCTRDSP))  ***
//ADCTRDSP EXEC IMSUPDTE,P=IMA,DISPR=SHR,MEMBER=ADCTRDSP,
//   SYMI=GENLIB,SYMO=MACLIB,USYSUT2=PERM,NEW=NEW,
//   SOUT='*',CONDL=0
//SYSIN    DD  *
./  ADD     NAME=ADCTRDSP
         MACRO                                                           0010000
&NAME    ADCTRDSP &CTR,&REG1=R9,&REG2=R7
.**********************************************************************
.*                                                                    *
.*       THIS MACRO IS USED INTERNAL TO DFSIDSP0 TO INCREASE BY       *
.*       ONE THE VALUE OF A SYSTEM COUNTER DESIGNATED BY &CTR.        *
.*       &CTR IS A NUMERIC SPECIFICATION STARTING FROM 1 (OR 01)      *
.*       AND GOES UP TO 64.  THE VALUES FOR &REG1 AND &REG2 ARE       *
.*       REGISTER NOTATIONS AND ALWAYS TAKE THE FORM "R_" OR "R__".   *
.*                                                                    *
.*                                                                    *
.**********************************************************************
         LCLC  &I
         LCLA  &N
&I       SETC  '&CTR'(1,K'&CTR)
&N       SETA  &CTR
         AIF   (&N GE 1 AND &N LE 64).CONT
         MNOTE 8,'COUNTER VALUE &CTR INVALID'
         AGO   .MEND
.*
.CONT    ANOP
&NAME    LA    &REG2,1
         A     &REG2,(&N-1)*4(,&REG1)
         ST    &REG2,(&N-1)*4(,&REG1)
.MEND    MEND
