//AIMS31UE JOB 'IMSGROUP  SH28205610*110A044         999  3000009037',
//  NOTIFY=$A1016,
//  REGION=999K,TIME=5,MSGLEVEL=1,MSGCLASS=H
//*MAIN ORG=LOCAL,CLASS=L
//NARAOUE0 EXEC IMSUPDTE,DISPR=SHR,
//  MEMBER=DFSAOUEH,
//             P=IMA,LOAD='PVT.MODS',
//* CONDL=0,
//* XREFC='XREF(FULL)',
//  SYMI=SOURCETM,SYMO=SOURCETM,ACCT=1,SOUT='*'
//C.SYSIN  DD *
         TITLE 'DFSAOUE0    ---   MACROS.'
         MACRO
&NAME    CALLIST &X,&WXTRN=YES
         AIF   ('&WXTRN' EQ 'NO').WXTDUN
         WXTRN   &X
.WXTDUN  ANOP
&NAME    DC    CL8'&X',V(&X)
         MEND
         EJECT
         MACRO
&NAME    NARUEBUF &COMMENT
NUECPYBF DSECT
NUELL    DC    Y(0)
NUEZZ    DC    Y(0)
NUECMD   DC    CL4'/CMD'
         ORG   NUECMD
NUETXT   DC    CL7'DFS994I'
         ORG
         MEND
         EJECT
         MACRO
&NAME    SNAP1LST &N1,&N2,&VERBAGE,&MODE=,&ORG=
         GBLC  &VERBNAM(20),&VERBTXT(20)
         GBLA  &I
         LCLA  &L,&J
         AIF   ('&MODE' EQ 'MESSAGES').DOMSGS
.*************************************************************
         AIF   ('&VERBAGE'(1,1) EQ '').OVVERB
.*    *********************
&L       SETA  K'&VERBAGE-2         -2 FOR QUOTES.
&I       SETA  &I+1
&VERBNAM(&I) SETC 'SPL&SYSNDX.A'
&VERBTXT(&I) SETC '&VERBAGE'
         DC    A(SPL&SYSNDX.A)
         DC    A(SPL&SYSNDX.A+&L-1)
.OVVERB  ANOP
.***********************************************
         AIF   ('&MODE' EQ 'ADCONS').ADCONS
         AIF   ('&N1'(1,1) EQ '0').OVDCANM
.*    *********************
&N1      DC    A(SPL0000Y)
&N2      DC    A(SPL0000Z-1)
         AGO  .OVDCANM
.*    *********************
.ADCONS  DC    A(&N1,&N2)
.OVDCANM ANOP
.**************************
         AIF   ('&MODE' NE 'ENDLIST').OVEND
         ORG   *-4
         DC    X'80'
         ORG
.OVEND   ANOP
         MEXIT
.**************************************************************
.DOMSGS  ANOP
         AIF   ('&ORG' EQ '').OVADJ
         CNOPBIGR ORG=&ORG
.OVADJ   ANOP
.*******************************
.LOPMSG  ANOP
&J       SETA  &J+1
         AIF   (&J GT &I).DUNMSG
&VERBNAM(&J) DC   0D'0',CL32&VERBTXT(&J)
         AGO   .LOPMSG
.DUNMSG  ANOP
SPL0000Y DC    0D'0',CL32'NOT AVAILABLE IN THIS DUMP.'
SPL0000Z EQU   *
         MEND
**********************************************************************
  TITLE 'NARAOUE0 --- INITIALIZATION.'
**********************************************************************
DFSAOUE0 CSECT
**   REGS ON INPUT
*    R0     A FLAG VALUE
*          =0  INIT ENTRY FOR THIS MSG; UEHBFLG1=UEH1SEG=X'40' IF R0=0.
*              IF UEHFLG1=UEH1CPYP=X'20',THEN UEHCPYBF POINTS
*                                              TO A SYSTEM MESSAGE.
*              IF UEHFLG1=UEH1CMD=X'10', THEN UEHCPYBF POINTS
*                                              TO COPY OF ORIG BUFR.
*          =4  NEITHER FIRST NOR LAST ENTRY; SOMEWHERE IN THE MIDDLE.
*          =8  LAST ENTRY FOR THIS MSG.
*         =12=X'0C' ENTRY FOLLOWING REQUEST FOR STORAGE.
*                    ADDR IS IN UEHUBUFF; =0 IF NONE AVAIL.
*         =16=X'10' ERROR ENCOUNTERED; COMMAND ABORTED; NO SEG AVAIL.
*
*    R1    PTR TO UEHB
*    R7    PTR TO CTB
*    R9    PTR TO CLB
*    R11   PTR TO SCD
*    R13   SAVE AREA
*    R14   RETURN
*    R15   ENTRY POINT
**   REGS ON EXIT
*    R0      ADDRESS OF ALT DEST NAME IF RC/R15=0 OR 8; 8BYTES PADDED.
*            /OR/  SIZE OF STORAGE REQUEST IF RC/R15=16(X'10')
*    R1      ADDRESS OF SEG TO ISRT TO ALT DEST IF R15=0 OR 8.
*    R15  =0 ISRT SEG TO ALT DEST; R0-> DEST; R1-> SEGMENT
*         =4 IGNORE THIS SEG ONLY.
*         =8 PROC COMPLETE; A SEGMENT MAY BE ISRT'ED.
*        =12 PROC COMPLETE; CANCEL ALL ISRT'ED SEGMENTS.
*        =16 REQUEST FOR STORAGE  (R0)=SIZE-OF-AREA-TO-BE-GOTTEN.
*               NEXT ENTRY WILL HAVE (R0)=12.
*        =20
         PRINT   GEN
*        CHANGEID NAME=DFSAOUE,BASE=12
*        CHANGEID IDEND=YES
         PROLOGUE SAVE=*PRECHN
         REQUATE
         CEQUATE
         PRINT   GEN
D#E      EQU   R0        IN SRDUP   = REG FOR DIVIDE - EVEN MBR OF PAIR
D#O      EQU   D#E+1     IN SRDUP   = REG FOR DIVIDE - ODD  MBR OF PAIR
R#L      EQU   R1        IN SRLOGIT = PTR TO LTERM NAME.
M#T      EQU   R1        IN SRTIMSTP= PTR TO "TO"   AREA.
M#F      EQU   R2        IN SRTIMSTP= PTR TO "FROM" AREA.
*B#F     EQU   R2        IN         = PTR TO FEATURES BASE.
C#A      EQU   R1        IN SRDUP   = PTR TO A COMPARAND.
C#B      EQU   R2        IN SRDUP   = PTR TO A COMPARAND.
P#C      EQU   R2        IN SRCALL  = PTR TO CALL-LIST.
B#U      EQU   R3        BASE FOR THE UEHB.
B#C      EQU   R4        BASE FOR THE MSG/CMD BUFFER.
P#B      EQU   R5        IN SRTIMSTP= PTR TO THE BLANK SPOT (C/B = M#F)
P#F      EQU   R5        IN FGFEAT  = PTR TO FEATURE DBL WORD.
E#M      EQU   R6        IN SRTIMSTP= LENGTH TO EXECUTE IN MACH CODE.
B#SEC    EQU   R9        THE SECOND BASE REGITER.
B#S      EQU   R11       *** IDENTITY W/ IBM AT TIME OF CALL.
L##      EQU   R14       LINK TO ALL SUB ROUTINES.
R#X      EQU   R14       WORKING REGISTER --- SHORT TERM FOR INDEXING.
R#BALC   EQU   R14       BRANCH AND LINK CONDITIONAL.
R#W      EQU   R15       WORKING REGISTER --- SHORT TERM FOR MISC.
         STM   R0,R15,STM015
         LA    B#SEC,4095(R12)
         LA    B#SEC,1(B#SEC)
         USING DFSAOUE0+4096,B#SEC
         LR    B#U,R1
         USING UEHB,B#U
         USING SCD,B#S
         USING NUECPYBF,B#C
**************************************************
         ICM   R15,X'0F',=X'01000000'     PRETEND 31-BIT MODE.       XA
         LA    R15,0(R15)                 TRY TO CLEAR IT.           XA
         LTR   R15,R15                    Q. WAS IT CLEARED.         XA
         BZ    AMODE31X                     YES; IS 24, NOT 31.      XA
         OI    AMODE31F,X'80'               NO;  IS 31-BIT. SET FLAG.XA
         LA    R15,AMODE31X               RIG POINTER TO CONTINUE.   XA
         BSM   0,R15                      SET AMODE=24.              XA
AMODE31X #                                                           XA
**************************************************
         BAL   L##,SRLOGIT
         L     R#W,STMR0
         B     *+4(R#W)
         B     ENTRY0
         B     ENTRY4
         B     ENTRY8
         B     ENTRY12
         B     ENTRY16
AMODE31F DC    A(0)                                                  XA
**********************************************************************
  TITLE 'NARAOUE0 --- ENTRY0; INITIAL ENTRY FOR THIS PROCESS.'
**********************************************************************
*    R0     A FLAG VALUE
*          =0  INIT ENTRY FOR THIS MSG; UEHBFLG1=UEH1SEG=X'40' IF R0=0.
*              IF UEHFLG1=UEH1CPYP=X'20',THEN UEHCPYBF POINTS
*                                              TO A SYSTEM MESSAGE.
*              IF UEHFLG1=UEH1CMD=X'10', THEN UEHCPYBF POINTS
*                                              TO COPY OF ORIG BUFR.
ENTRY0   #
         TM    UEHBFLG1,UEH1CPYP
         BO    E0MSG
         TM    UEHBFLG1,UEH1CMD
         BO    E0CMD
         MVC   RETCODE,=A(12)
         B     EXITVV
**********************************************************************
  TITLE 'NARAOUE0 --- ENTRY4; MIDDLE ENTRY FOR THIS PROCESS.'
**********************************************************************
*    R0     A FLAG VALUE
*          =4  NEITHER FIRST NOR LAST ENTRY; SOMEWHERE IN THE MIDDLE.
ENTRY4   #
         TM    UEHBFLG1,UEH1CPYP
         BO    E4MSG
         TM    UEHBFLG1,UEH1CMD
         BO    E4CMD
         MVC   RETCODE,=A(08)
         MVC   RET#R0,=A(00)
         MVC   RET#R1,=A(00)
         B     EXITVV
**********************************************************************
  TITLE 'NARAOUE0 --- ENTRY8; LAST ENTRY FOR THIS PROCESS.'
**********************************************************************
*    R0     A FLAG VALUE
*          =8  LAST ENTRY FOR THIS MSG.
ENTRY8   #
         TM    UEHBFLG1,UEH1CPYP
         BO    E8MSG
         TM    UEHBFLG1,UEH1CMD
         BO    E8CMD
         MVC   RETCODE,=A(08)
         MVC   RET#R0,=A(00)
         MVC   RET#R1,=A(00)
         B     EXITVV
**********************************************************************
  TITLE 'NARAOUE0 --- ENTRY12; RETURN FROM GET-SPACE.'
**********************************************************************
*    R0     A FLAG VALUE
*         =12=X'0C' ENTRY FOLLOWING REQUEST FOR STORAGE.
*                    ADDR IS IN UEHUBUFF; =0 IF NONE AVAIL.
ENTRY12  #
         MVC   RETCODE,=A(12)
         B     EXITVV
**********************************************************************
  TITLE 'NARAOUE0 --- ENTRY16; ERROR.'
**********************************************************************
*    R0     A FLAG VALUE
*         =16=X'10' ERROR ENCOUNTERED; COMMAND ABORTED; NO SEG AVAIL.
ENTRY16  #
         MVC   RETCODE,=A(12)
         B     EXITVV
**********************************************************************
  TITLE 'NARAOUE0 --- RETURN '
**********************************************************************
EXITVV   BAL   L##,SRSNAP
EXITXX   STM   R0,R15,EXITREGS
***      ***********************
         TM    AMODE31F,X'80'      Q. HOW WAS AMODE WHEN WE ENTERED. XA
         BZ    AMODE31A              AMODE WAS =24; SKIP & IGNORE.   XA
         L     R14,=A(X'80000000'+AMODE31A)  RIG POINTER TO CONTINU. XA
         BSM   0,R14                 AMODE WAS =31; SET IT BACK.     XA
AMODE31A #                                                           XA
**********************************************************************
*&ë%$#   BAL   L##,SRSNAP              **&&%%$$##**
         L      R0,RET#R0
         L      R1,RET#R1
         L     R15,RETCODE
         EPILOGUE  RETURN=(R0,R1,R15)
**********************************************************************
  TITLE 'NARAOUE0 --- HANDLE AN OUTPUT MESSAGE.'
**********************************************************************
** FORMAT OF AREA POINTED TO BY UEHCPYBF
*   LLZZ,AL1(CC),'MESSAGE',AL1(CC),XL20'WORKAREA'
*   LL  INCLUDE ALL BUT THE LAST 20 BYTES.
*   CC  IS OPTIONAL CARRIAGE CONTROL
*   WORKAREA CONTENTS MOST LIKELY ARE GARBAGE.
         PRINT NOGEN
E0MSG    #
E4MSG    #
E8MSG    #
         L     R#W,UEHCPYBF
         MVC   MSGCPY9,0(R#W)           COPY MOST RECENT  BUFFER.
         CLC   MSGCPY0,MSGCPY1          Q. IS THE "FIRST" BUFFER FULL.
         BNE   *+4+6                      YES, SKIP; DO NOT   RE-FILL.
         MVC   MSGCPY1,0(R#W)             NO,  COPY INTO  BUFFER.
         BAL   L##,SRSNAP
         XC    MSGMSGPT,MSGMSGPT        CLEAR "MESSAGE TO SEND" PTR.
         L     B#C,UEHCPYBF
         BAL   L##,SRDUPLIC             CHECK FOR DUPES & NEAR-DUPES.
         BAL   L##,SRTIMSTP             ADD TIME STAMP IF NOT PRESENT.
         CLC   =C'DFS994',NUETXT        IF MSG-DFS994,
         BALC  EQ,MSG994,R=L##            THEN PROCESS NUC CHKPTS.
         CLC   =C'DFS681',NUETXT        IF MSG-DFS681,
         BALC  EQ,MSG681,R=L##            THEN PROCESS BMP CHKPTS.
         CLC   =C'DFS0488',NUETXT       IF MSG-DFS488,
         BALC  EQ,MSG488,R=L##            THEN PROCESS CMD COMPLETED.
         CLC   =C'IM0',NUETXT           IF MSG-IM0---- FROM B&B'S.
         BALC  EQ,MSGIF0,R=L##            THEN B&B'S IMF MESSAGE.
         CLC   =C'DFS551',NUETXT        IF MSG-DFS551,
         BALC  EQ,MSG551,R=L##            THEN PROCESS MSG/BMP STA/STO.
         CLC   =C'DFS552',NUETXT        IF MSG-DFS552,
         BALC  EQ,MSG551,R=L##            THEN PROCESS MSG/BMP STA/STO.
         OC    MSGMSGPT,MSGMSGPT        Q. ANY MESSAGE TO SEND.
         BNZ   MSGEX08R                   YES; RIG TO SEND IT.
         MVC   RETCODE,=A(04)             NO; EXIT.
         B     EXITXX
*******************
MSGEX08R L     R1,MSGMSGPT              POINT TO MSG TO SEND.
         LA    R0,=CL8'MASTER'          POINT TO DEST NAME.
         ST    R0,RET#R0                STO
         ST    R1,RET#R1                STO
         MVC   RETCODE,=A(00)           INDICATE NEED TO SEND MSG.
         B     EXITXX
*******************************
MSGMSGPT DC    A(0)
**********************************************************************
  TITLE 'NARAOUE0 --- MESSAGE "DFS994...".'
**********************************************************************
*-* IF NUC CHKPT MESSAGE
*-*   IF FIRST ONE
*-*     THEN CALL THE INITIALIZATION ROUTINE LIST.
MSG994   BENT
         AP    MSG994NN,=P'1'             COUNT CHECKPOINTMSGS.
         CP    MSG994NN,=P'1'             Q. IS THIS THE FIRST ONE.
         BE    MSG994#1                     YES; THEN DO SOME INIT.
         B     MSG994ZZ                     NO; EXIT.
MSG994#1 #
         DLLINK (M,4),'DFSAOUE0/RST=>',(B#C),*WTP
         DLLINK  M,*WTO
         LA    P#C,CALLIST1       POINT TO THE INITIALIZATION LIST.
         BAL   L##,SRCALIST       CALL THE FIND-AND-CALL ROUTINE.
MSG994ZZ BEXIT
MSG994NN DC    PL4'0'
**********************************************************************
  TITLE 'NARAOUE0 --- MESSAGE "DFS681...".'
**********************************************************************
*-* IF BMP CHKPT MESSAGE
*-*   IF THE FEAT=12 (DECIMAL) IS SET ON.
*-*     THEN IGNORE IT BY SETTING ITS LENGTH TO ZERO.
MSG681   BENT
         AP    MSG681NN,=P'1'             COUNT BMP CHKPT-MSGS.
         CP    MSG681NN,=P'4'             Q. IS THIS A LATE ONE.
         BH    MSG681#1                     YES; THEN SKIP THE WTP.
         DLLINK (M,4),'DFSAOUE0/681=>',(B#C),*WTP
MSG681#1 #
         PUSH  PRINT
         PRINT GEN
         NARSCDF B#F,NARSCFB0      GET  FEATURES BASE.
         TM    012*8(B#F),X'80'    Q. FEATURE #12 INFORCE.
         BZ    MSG681ZZ              NO; IGNORE; CONTINUE NORMALLY.
         POP   PRINT
         XC    NUELL,NUELL         SET LENGTH TO ZERO TO IGNORE THIS.
MSG681ZZ BEXIT
MSG681NN DC    PL4'0'
**********************************************************************
  TITLE 'NARAOUE0 --- MESSAGE "DFS488...".'
**********************************************************************
*-* IF CMD COMPLETED MSG.
*-*   IF THE FEAT=13 (DECIMAL) IS SET ON.
*-*     THEN IGNORE IT BY SETTING ITS LENGTH TO ZERO.
MSG488   BENT
         AP    MSG488NN,=P'1'             COUNT COMMAND COMPLETED MSGS.
         CP    MSG488NN,=P'4'             Q. IS THIS A LATE ONE.
         BH    MSG488#1                     YES; THEN SKIP THE WTP.
         DLLINK (M,4),'DFSAOUE0/488=>',(B#C),*WTP
MSG488#1 #
         PUSH  PRINT
         PRINT GEN
         NARSCDF B#F,NARSCFB0      GET  FEATURES BASE.
         TM    013*8(B#F),X'80'    Q. FEATURE #13 INFORCE.
         BZ    MSG488ZZ              NO; IGNORE; CONTINUE NORMALLY.
         POP   PRINT
         XC    NUELL,NUELL         SET LENGTH TO ZERO TO IGNORE THIS.
MSG488ZZ BEXIT
MSG488NN DC    PL4'0'
**********************************************************************
  TITLE 'NARAOUE0 --- MESSAGES "IM0...." FROM B && B''S IMF.'
**********************************************************************
*-* IF  IM0----       MSG.
*-*  IF IM0203        MSG.
*-*   IF THE FEAT=14 (DECIMAL) IS SET ON.
*-*     THEN IGNORE IT BY SETTING ITS LENGTH TO ZERO.
MSGIF0   BENT
         CLC   =C'IM0203',NUETXT       IF MSG-IM0203,
         BE    MSGIF0#0                  THEN SUPPRESS.
         B     MSGIF0ZZ                 ELSE SKIP AND ALLOW IT.
MSGIF0#0 AP    MSGIF0NN,=P'1'             COUNT B & B MSGS.
         CP    MSGIF0NN,=P'4'             Q. IS THIS A LATE ONE.
         BH    MSGIF0#1                     YES; THEN SKIP THE WTP.
         DLLINK (M,4),'DFSAOUE0/IM0=>',(B#C),*WTP
MSGIF0#1 #
         PUSH  PRINT
         PRINT GEN
         NARSCDF B#F,NARSCFB0      GET  FEATURES BASE.
         TM    014*8(B#F),X'80'    Q. FEATURE #14 INFORCE.
         BZ    MSGIF0ZZ              NO; IGNORE; CONTINUE NORMALLY.
         POP   PRINT
         XC    NUELL,NUELL         SET LENGTH TO ZERO TO IGNORE THIS.
MSGIF0ZZ BEXIT
MSGIF0NN DC    PL4'0'
**********************************************************************
  TITLE 'NARAOUE0 --- MESSAGES "DFS551" FOR MSG/BMP START/STOP.'
**********************************************************************
*-* IF MSG/BMP START/STOP MSG
*-*  CALL NARAOUP0 TO DO THE WORK.
MSG551   BENT
         AP    MSG551NN,=P'1'             COUNT THESE MSGS.
         CP    MSG551NN,=P'4'             Q. IS THIS A LATE ONE.
         BH    MSG551#1                     YES; THEN SKIP THE WTP.
         DLLINK (M,4),'DFSAOUE0/551=>',(B#C),*WTP
MSG551#1 #
         XC    MSG551MG,MSG551MG                 CLEAR MESSAGE PTR.
         CALL  NARAOUP0,((B#S),(B#U),MSG551MG),VL
**************
         L     R#W,=A(PST551FF)                  PTR TO SNAP FLAG.
         OC    0(4,R#W),0(R#W)                   Q. ANY NEED TO SNAP.
         BZ    MSG551S                             NO; SKIP.
         AP    SRSNPNNN,=P'4'                           BUMP CNTR.
         BAL   L##,SRSNAP                          YES; SNAP NOW.
MSG551S  #
**************
         OC    MSG551MG,MSG551MG                 Q. ANY MESSAGE.
         BZ    MSG551Z                             NO; SKIP.
         MVC   MSGMSGPT,MSG551MG                   YES; COPY TO CALLER.
MSG551Z  BEXIT
MSG551MG DC    A(0)
         BEXIT
MSG551NN DC    PL4'0'
**********************************************************************
  TITLE 'NARAOUE0 --- MESSAGE DUPLICATES.'
**********************************************************************
*-* IF THIS MESSAGE LOOKS A LOT LIKE THE LAST ONE.
*-*   IF THE FEAT=11 (DECIMAL) IS SET ON.
*-*     THEN IGNORE IT BY SETTING ITS LENGTH TO ZERO.
         LCLC  &SRDUL
&SRDUL   SETC  '100'
SRDUPLIC BENT
         AGO   .OVRDUPE
         NARSCDF B#F,NARSCFB0      GET  FEATURES BASE.
         TM    011*8(B#F),X'80'    Q. FEATURE #11 INFORCE.
         BZ    SRDUPEZZ              NO; IGNORE; EXIT.
       AGO   .OVRDUPE     *&ë%$#@*&ë%$#@
         XC    SRDUPFLG,SRDUPFLG        CLEAR "DUPE" FLAG.
         LH    E#M,NUELL                GET LENGTH.
         CH    E#M,SRDUPREV             Q. SAME AS PREV MSG'S LEN.
         BNE   SRDUPDIF                   NO; EXIT. NO CHANCE FOR DUPE.
         XC    SRDUCURR,SRDUCURR        CLEAR "CURR" SPACE.
         CH    E#M,=Y(L'SRDUCURR)       Q. IS IT TOO LONG.
         BC    GT,*+4+4                   NO; USE IT.
         LH    E#M,=Y(L'SRDUCURR)         YES; CUT IT OFF.
         BCTR  E#M,0                    MACHCODE.
         EX    E#M,SRDUMVC              MOVE MOST OF THIS MESSAGE.
*************************************
         ZAP   SRDUPCRD,=P'0'           ZERO THE DUPE COUNTER.
         ZAP   SRDUPCDF,=P'0'           ZERO THE DIFF COUNTER.
         LA    C#A,SRDUPREV-1           POINT TO THE
         LA    C#B,SRDUCURR-1                TWO COMPARANDS.
SRDULOOP LA    C#A,1(C#A)               BUMP THE
         LA    C#B,1(C#B)                    TWO COMPARAND POINTERS.
         C     C#B,=A(SRDUCURR+L'SRDUCURR)   Q. ARE WE THRU.
         BC    GE,SRDUDUN                      YES; EXIT.
         CLC   0(1,C#A),0(C#B)          Q. ARE THE CHARS ALIKE.
         BNE   SRDUPDIF                   NO; THEY ARE DIFFERENT.
         CLI   0(C#A),X'00'             Q. ARE THE CHARS X'00'.
         BE    SRDULOOP                   YES; TREAT AS A NULL; LOOP.
         CLI   0(C#A),X'40'             Q. ARE THE CHARS X'40'.
         BE    SRDULOOP                   YES; TREAT AS A NULL; LOOP.
         AP    SRDUPCRD,=P'1'           CHAR A NON-NULL REAL DUPE.
         B     SRDULOOP
SRDUPDIF AP    SRDUPCDF,=P'1'           CHAR IS DIFFERENT.
         B     SRDULOOP
****************
         ZAP   SRDUPCTL,SRDUPCDF        NBR OF DIFF CHRS
         SP    SRDUPCTL,SRDUPCRD         + NBR REAL DUPES = TTL REAL.
         LA    R#W,100
         CVB   D#O,SRDUPCRD             DUPE REAL
         M     D#E,R#W                    * 100   = 100*REAL DUPE.
         CVB   R#W,SRDUPCTL             TOTAL REAL.
         D     D#E,R#W                  D#O= PERCENT OF DUPE IN TOTAL.
         C     D#O,SRDUPRCT             Q. ARE THERE ENOUGH DUP CHRS.
         BC    GT,SRDUPYES                YES; TREAT AS DUPE MESSAGE.
*********************
*   THIS MESSAGE IS NOT LIKE THE PREV MESSAGE.
*    IF THE PREVIOUS MESSAGE WAS LIKE THE ONE BEFORE IT,
*      THEN WE WANT TO INDICATE HOW MANY WERE SUPPRESSED.
SRDUPDIF CP    SRDUPCTR,SRDUPCLM        Q. HAVE DUPES JUST GONE BY.
         BC    LT,SRDUPDFF                NO; EXIT.
*        BAL ???                          YES; ADD COUNT TO THIS MSG.
SRDUPDFF ZAP   SRDUPCTR,=P'0'           ZERO THE DUPE MESSAGE CTR.
         BE    SRDUPEZ5                 EXIT.
*********************
*   THIS MESSAGE IS LIKE THE PREVIOUS MESSAGE.
*    IF THERE HAVE BEEN ENOUGH OF THEM IN A ROW,
*      THEN WE WANT TO SUPPRESS THIS ONE.
SRDUPYES OI    SRDUPFLG,X'01'           SET THE FLAG.
         AP    SRDUPCTR,=P'1'           BUMP THE DUPE MESSAGE CTR.
         CP    SRDUPCTR,SRDUPCLM        Q. HAVE ENOUGH DUPE MESSAGES.
         BC    LT,SRDUPEZ5                NO; JUST A FEW; LET 'EM GO.
         XC    NUELL,NUELL                YES; SUPPRESS THIS ONE.
*************************************
SRDUPEZ5 MVC   SRDUPREV,SRDUCURR
.OVRDUPE ANOP
SRDUPEZZ BEXIT
******************************************************
SRDUPFLG DC    XL1'0'
SRDUPCLM DC    PL2'4'
SRDUPRCT DC    A(75)   PERCENT OF DUPES IN TTL REAL TO MAKE MSG A DUPE.
SRDUPCTL DC    PL4'0'
SRDUPCRD DC    PL4'0'
SRDUPCDF DC    PL4'0'
SRDUPCTR DC    PL4'0'
SRDUMVC  MVC   SRDUCURR(0),NUECPYBF
SRDUPREV DC    XL&SRDUL'0'
SRDUCURR DC    XL&SRDUL'0'
**********************************************************************
  TITLE 'NARAOUE0 --- HANDLE AN  INPUT COMMAND.'
**********************************************************************
** FORMAT OF AREA POINTED TO BY UEHCPYBF
*     UNKNOWN AT THIS POINT ??
** FORMAT OF AREA POINTED TO BY UEHECMD
*  AL1(F1),CL3'CMD',AL1(NK),AL1(F2),CL3'KEY',AL1(F2..........,C'.'
*  AL1(F1),CL3'CMD',AL1(NK),AL1(F2),AL1(LTH),AL1(DLM),AL1(F2.,C'.'
*      F1 = X'FE'  IF OK
*         = X'FC'  IF A BAD PARM
*      F2 = X'FC' ==> FOLLOWING PARM IS IN ERROR
*         = X'FF' ==> FOLLOWING IS A 3-BYTE KEYWORD
*         = X'FE' ==> FOLLOWING IS A 1-BYTE LENGTH THEN A PARM
*         = C'('  ==> FOLLOWING IS A 1-BYTE LENGTH THEN A PSWD
*      DLM = THE ENTERED DELIMITER (E.G., COMMA SPACE )
E0CMD    #
E4CMD    #
E8CMD    #
         L     R#W,UEHCPYBF
         MVC   CMDCPYW,0(R#W)           COPY MOST RECENT  BUFFER.
         MVC   CMDCPY9,0(R#W)           COPY MOST RECENT  BUFFER.
         CLC   CMDCPY0,CMDCPY1          Q. IS THE "FIRST" BUFFER FULL.
         BNE   *+4+6                      YES, SKIP; DO NOT   RE-FILL.
         MVC   CMDCPY1,0(R#W)             NO,  COPY INTO  BUFFER.
         L     R#W,UEHECMD
         MVC   ECMDCPY9,0(R#W)          COPY MOST RECENT  BUFFER.
         CLC   ECMDCPY0,ECMDCPY1        Q. IS THE "FIRST" BUFFER FULL.
         BNE   *+4+6                      YES, SKIP; DO NOT   RE-FILL.
         MVC   ECMDCPY1,0(R#W)            NO,  COPY INTO  BUFFER.
         BAL   L##,SRSNAP
         XC    CMDMSGPT,CMDMSGPT
*        *****
         CLC   CMDCPYW(2),=Y(L'CMDCPYW)
         BC    LT,*+4+6
         MVC   CMDCPYW(2),=Y(L'CMDCPYW)
*        *****
         L     B#C,UEHCPYBF
         MVC   RETCODE,=A(04)            SET RC= FOR NO NEW MSG NOW.
         CLC   NUECMD,=C'/LOC'
         BALC  EQ,CMDLOC,R=L##
         CLC   NUECMD,=C'/LOG'
         BALC  EQ,CMDLOG,R=L##
         CLC   NUECMD,=C'/STA'
         BALC  EQ,CMDSTA,R=L##
         CLC   NUECMD,=C'/CHE'
         BALC  EQ,CMDCHE,R=L##
         CLC   NUECMD,=C'/RCL'
         BALC  EQ,CMDRCL,R=L##
         CLC   NUECMD,=C'/SIG'
         BALC  EQ,CMDSIG,R=L##
         CLC   NUECMD,=C'/DIS'
         BALC  EQ,CMDDIS,R=L##
         OC    CMDMSGPT,CMDMSGPT        Q. ANY MESSAGE TO SEND.
         BNZ   CMDEX08R                   YES; RIG TO SEND IT.
         B     EXITXX
*******************
CMDEX08R L     R1,CMDMSGPT              POINT TO MSG TO SEND.
         LA    R0,=CL8'MASTER'          POINT TO DEST NAME.
         ST    R0,RET#R0                STO
         ST    R1,RET#R1                STO
         MVC   RETCODE,=A(00)           INDICATE NEED TO SEND MSG.
         B     EXITXX
******************************************
CMDMSGPT DC    A(0)
CMDPT1   DC    A(CMDPT2)
CMDPT2   DC    A(CMDCPYW) > UEHCPYBF
**********************************************************************
  TITLE 'NARAOUE0 --- SUBROUTINES '
**********************************************************************
*-* IF THIS COMMAND IS /LOCK
CMDLOC   BENT
         DLLINK (M,4),'  ',*DATETIME,' LOCK CMD =>',(B#C),*WTP
         BEXIT
************************
**
************************
*-* IF THIS COMMAND IS /LOG
*-*   IF THE /DYN  KEYWORD IS PRESENT
*-*     THEN CALL  NARDYNT0
*-*   IF THE /FLAG KEYWORD IS PRESENT
*-*          /FFF   OR  /FFFF
*-*     THEN CALL  NARSOUF0
CMDLOG   BENT
         DLLINK (M,4),'  ',*DATETIME,' LOG  CMD =>',(B#C),*WTP
         BAL   L##,SRKEYFLG
         CLI   PMDYN,0
         BNE   CMDLDYN
         OC    PMFLG(4),PMFLG3
         OC    PMFLG(4),PMFLG4
         CLI   PMFLG,0
         BNE   CMDLFLAG
CMDLOGX9 BEXIT
************************
         PUSH  PRINT
         PRINT NOGEN
CMDLFLAG CALL  NARAOUF0,((B#S),(B#U)),VL
         B     CMDLOGX9
*      *************
**
*      *************
         WXTRN NARDYNT0
CMDLDYN  #
*&ë%$#@  CALL  NARDYNT0,((B#S),(B#U)),VL
         POP   PRINT
         B     CMDLOGX9
************************
**
************************
*-* IF THIS COMMAND IS /LOG
*-*   IF THE /TRAN KEYWORD IS PRESENT
*-*          /TTT   OR  ETC.
*-*     IF THE .PROG KEYWORD IS PRESENT
*-*            .PPP OR  ETC.
*-*       THEN CALL  NARAOUT0 TO START THE PMG THAT GOES WITH THE TRAN.
CMDSTA   BENT
CMDSTA10 BAL   L##,SRKEYFLG
         OC    PMTTT(4),PMTTT2      "OR" TOGETHER ALL OF THE
         OC    PMTTT(4),PMTTT3           ALIASES FOR "TRAN".
         OC    PMTTT(4),PMTTT4
         OC    PMTTT(4),PMTTT5
         CLI   PMTTT,0
         BE    CMDSTAT9
         OC    PMPPP(4),PMPPP2      "OR" TOGETHER ALL OF THE
         OC    PMPPP(4),PMPPP3           ALIASES FOR "PROG".
         OC    PMPPP(4),PMPPP2A
         CLI   PMPPP,0
         BE    CMDSTAT9
         XC    CMDSTAMG,CMDSTAMG                 CLEAR MESSAGE PTR.
         CALL  NARAOUT0,((B#S),(B#U),CMDSTAMG),VL
         OC    CMDSTAMG,CMDSTAMG                 Q. ANY MESSAGE.
         BZ    CMDSTAT9                            NO; SKIP.
         MVC   CMDMSGPT,CMDSTAMG                   YES; COPY TO CALLER.
CMDSTAT9 BEXIT
CMDSTAMG DC    A(0)
************************
**
************************
*-* IF CHKPT COMMAND
*-*   IF A SHUTDOWN TYPE
*-*     THEN CALL THE TERMINATION    ROUTINE LIST.
CMDCHE   BENT
CMDCHE10 BAL   L##,SRKEYFLG
         CLI   PMFRE,0
         BNE   CMDCHE20
         CLI   PMDPQ,0
         BNE   CMDCHE20
         CLI   PMPUR,0
         BNE   CMDCHE20
         B     CMDCHE90
CMDCHE20 #
         DLLINK (M,4),'DFSAOUE0/SHUT=>',(B#C),*WTP
         LA    P#C,CALLIST2       POINT TO THE TERMINATION LIST.
         BAL   L##,SRCALIST       CALL THE FIND-AND-CALL ROUTINE.
         AP    SRSNPNNN,=P'30'    BUMP CTR TO GET AT LEAST N MORE.
         SP    SRLOGNNN,=P'100'   DECR CTR TO GET AT LEAST N MORE.
CMDCHE90 BAL   L##,SRSNAP
         BEXIT
************************
**
************************
*-* IF /RCL  COMMAND
*-*   IF FEATURE SET ON
*-*     THEN RIG RC=12 TO  NOT GET     RESPONSE TO THIS COMMAND.
*-*      AND TO SUPPRESS IMF'S GETTING RESPONSE TO THIS COMMAND.
CMDRCL   BENT
         NARSCDF B#F,NARSCFB0      GET  FEATURES BASE.
         TM    017*8(B#F),X'80'    Q. FEATURE     INFORCE.
         BZ    CMDRCL9W              NO; CONTINUE NORMALLY.
         MVC   RETCODE,=A(12)        YES; SET RC=12 TO IGNORE RESPONSE
CMDRCL9W BEXIT
************************
**
************************
*-* IF /SIG  COMMAND
*-*   IF FEATURE SET ON
*-*     THEN RIG RC=12 TO  NOT GET     RESPONSE TO THIS COMMAND.
*-*      AND TO SUPPRESS IMF'S GETTING RESPONSE TO THIS COMMAND.
CMDSIG   BENT
         NARSCDF B#F,NARSCFB0      GET  FEATURES BASE.
         TM    018*8(B#F),X'80'    Q. FEATURE     INFORCE.
         BZ    CMDSIG9W              NO; CONTINUE NORMALLY.
         MVC   RETCODE,=A(12)        YES; SET RC=12 TO IGNORE RESPONSE
CMDSIG9W BEXIT
************************
**
************************
*-* IF /DIS  COMMAND
*-*  IF NOT ENTERED FROM THE MASTER.
*-*   IF COMMAND DOES NOT HAVE .JJJ IN IT.
*-*    IF FEATURE SET ON
*-*     THEN RIG RC=12 TO  NOT GET     RESPONSE TO THIS COMMAND.
*-*      AND TO SUPPRESS IMF'S GETTING RESPONSE TO THIS COMMAND.
CMDDIS   BENT
         CLC   SRLOGNAM,=CL8'MASTER' Q. IS THIS THE MASTER.
         BE    CMDDIS9W                YES; SKIP. LET RC= STAND.
         CLC   SRLOGNAM,=CL8'WTOR'   Q. IS THIS THE CONSOLE.
         BE    CMDDIS9W                YES; SKIP. LET RC= STAND.
CMDDIS10 BAL   L##,SRKEYFLG
         OC    PMDIS(4),PMDIS2      "OR" TOGETHER ALL OF THE
         OC    PMDIS(4),PMDIS3           ALIASES FOR DIS/LOG/JRNL.
         CLI   PMDIS,0             Q. DO WE WANT IT LOGGED.
         BNE   CMDDIS9W              YES; SKIP. LET RC= STAND.
         NARSCDF B#F,NARSCFB0      GET  FEATURES BASE.
         TM    019*8(B#F),X'80'    Q. FEATURE     INFORCE.
         BZ    CMDDIS9W              NO; CONTINUE NORMALLY.
         MVC   RETCODE,=A(12)        YES; SET RC=12 TO IGNORE RESPONSE
CMDDIS9W BEXIT
************************
**
************************
**********************************************************************
  TITLE 'NARAOUE0 --- SUBROUTINES '
**********************************************************************
***  S/R TO FIND THE KEYWORD FLAGS.
SRKEYFLG BENT
         TR   CMDCPYW+4(L'CMDCPYW-4),TABLEC  SET CNTRL CHARS TO BLANKS.
         ST   R13,SRSAVEAR+04        SET HI-SAVE PTR IN NEW SAVE-AREA.
         LA   R13,SRSAVEAR                 PT TO NEW SAVE AREA FOR S/R.
         CALL KEYFLAGS,(CMDPT1,KEYWORDS)   S/R WILL FORE & BACK CHAIN.
         L    R13,04(R13)                  RESTORE SAVE-SET POINTER.
         BEXIT