//AIMS31MS JOB 'IMSGROUP  SH28205610*110A044         999  3000007037',
//  REGION=999K,TIME=5,MSGLEVEL=1,MSGCLASS=H,NOTIFY=$A1016
//*MAIN ORG=LOCAL,CLASS=L5
//NARPST EXEC IMSUPDTE,P=IMA,MEMBER=NARPST,DISPR=SHR,
//    SYMI=GENLIB,SYMO=MACLIB,USYSUT2=PERM,
//    SOUT='*',CONDL=0
//SYSIN  DD *
./ ADD NAME=NARPST
         MACRO
&NAME    NARPST &P=N,&SECT=DSECT,&XPSTL=896,&XPSTA=26
         GBLC  &NARGBPS
         LCLC  &I
&NARGBPS SETC  '&SECT'
****************************************  5/10/90
&NAME    DC  0D'0'
&I        SETC  '0'
&P.ARPST#&I DC 0A(0),((&XPSTL/4)-1)A(0),F'-1'
            ORG &P.ARPST#&I
&P.ARPCHN&I DC  A(0)                PTR TO NEXT EXTENTION TO THIS PST
&P.ARPID1&I DC  CL4'RIP1'                    ID FOR OUR  EXTENDED PST
&P.ARPORG&I DC  A(&P.ARPST#&I)               PTR TO ORG OF THIS BLK
&P.ARPIPS&I DC  A(0)                         PTR TO THE IBM PST
&P.ARPSCD&I DC  A(0)  ==> V(DFSISCD)         PTR TO THE IBM SCD
&P.ARPRS1&I DC  A(0)  ==> V(&P.ARSCD10)      PTR TO THE NAR SCD
         PUSH  PRINT
&P.ARPST1&I EQU &P.ARPST#&I,*-&P.ARPST#&I
&P.ARPSTW&I DC AL1(L'&P.ARPST1&I-1),AL3(&P.ARPST1&I)       '
            DC AL1(L'&P.ARPST2&I-1),AL3(&P.ARPST2&I)       '
            DC AL1(L'&P.ARPST3&I-1),AL3(&P.ARPST3&I)       '
            DC AL1(L'&P.ARPST4&I-1),AL3(&P.ARPST4&I)       '
            DC 5A(0)          FREE SPACE.
&P.ARPSTV&I DC A(&P.ARPSTQ&I)          A SAVE AREA
&P.ARPSTY&I DC A(&P.ARPSTX&I)          REGN SUMMATION ACCTNG  DATA
&P.ARPSTJ&I DC A(&P.ARPSTK&I)          THIS SCHED'S ACCOUNTING DATA
&P.ARPSTC&I DC A(&P.ARPSTD&I)
&P.ARPSTE&I DC A(&P.ARPSTF&I)          STCK ARITHMETIC
**********************************
         NARSEPAR
&P.ARPSTD&I DC 06A(0)
*************************
         NARSEPAR
&P.ARPSTF&I DC 0D'0'               FOR STCK ARITHMETIC
&P.ARPTIA&I DC 8D'0'               FOR STCK ARITH  FOR MPP START STO
&P.ARPTIB&I DC 8D'0'               FOR STCK ARITH  FOR DYN ALLOC
*************************
         NARSEPAR
&P.ARPSTK&I DC 00A(0)
&P.ARPCHL&I DC Y(0,0)
&P.ARPCHI&I DC CL4'    '
&P.ARPCHF&I DC Y(0,0)
&P.ARPCHG&I DC 05A(0)              'SETC' VALUE (11 BYTES)
&P.ARPCHM&I EQU *-&P.ARPCHL&I      MAX ALLOW FOR 00LL0000
&P.ARPIWT&I DC 01A(0)              COUNT OF DL/I IWAITS FOR I/O
&P.ARPIWX&I DC XL(24*4)'0'           MORE   DL/I IWAITS COUNTS
*************************
         NARSEPAR
&P.ARPSTX&I DC   A(&XPSTA*4)       LGTH OF N-WORDS @ &P.ARPSTN&I
&P.ARPSTL&I DC         A(0)        NBR OF LOADS
&P.ARPSTM&I DC         A(0)        NBR OF MESSAGES
&P.ARPSTN&I DC (&XPSTA)A(0)        N-WORDS CORRES. TO ACCT DATA AREA
&P.ARPSTI&I DC         A(0)        IWAITS
            DC        3F'-1'
*************************
         NARSEPAR
&P.ARPSTQ&I DC 24A(0)
***********************************
         NARSEPAR
&P.ARPST2&I DC XL64'0'
*************************
         NARSEPAR
&P.ARPST3&I DC XL64'0'
*************************
         NARSEPAR
&P.ARPST4&I DC 0XL64'0',A(*),XL60'00'
&P.ARPSZZ&I EQU  *
.*$$$$$$$$$$$$$$$$$$$$$$$$$$$$$$$$$$$$$$$$$$$$
         AIF   ('&SECT' EQ 'DSECT').OVPSTS
&P.ARPS@@@ EQU   &XPSTL-(&P.ARPSZZ0-&P.ARPST#0) AMOUNT LEFT BEFORE ERR.
           DC 0XL(&P.ARPS@@@+1)'00'     IF ".@@@"  NEGATIVE THEN ERROR.
.OVPSTS  ANOP
************************************************************
**
************************************************************
         MEND
