//AIMS31MS JOB 'IMSGROUP  SH28205610*110A044         999  3000007037',
//  REGION=999K,TIME=5,MSGLEVEL=1,MSGCLASS=H,NOTIFY=$A1016
//*MAIN ORG=LOCAL,CLASS=L5
//UPDTE EXEC IMSUPDTE,P=IMA,MEMBER=NARSCD,DISPR=SHR,
//    SYMI=GENLIB,SYMO=MACLIB,USYSUT2=PERM,
//    SOUT='*',CONDL=0
//SYSIN  DD *
./ ADD NAME=NARSCD
         MACRO
&NAME    NARSCD &P=N,&SECT=DSECT,&XPSTN=255,&XPSTL=896,&XPSTA=26,&PP=, *
               &NSUB=20,&JFCBN=12,&JFCBL=64,&PST=YES
         GBLC  &NARGBPS
         LCLA  &IN
         LCLA  &K@NARX
         LCLC  &I,&ILIST
&NARGBPS SETC  '&SECT'
.*$$$$$$$$$$$$$$$$$$$$$$$$$$$$$$$$$$$$$$$$$$$$$$$$
         NARSEPAR
&NAME    DC  0D'0'
         NARSEPAR
.*$*****************
           AIF ('&SECT' NE 'CSECT').OVCS02
           ENTRY &P.ARSCD00
           ENTRY &P.ARSCD1#,&P.ARSCD2#
.OVCS02    ANOP
.*$*****************
&P.ARSCD00 DC    0D'0',AL1(&P.ARSCD0Z-&P.ARSCD00),VL3(&P.ARSCD00)
&P.ARSCD0I DC    A(0)    ===           ==>  V(DFSISCD)
           DC    A(0)
           DC    A(0)
.*$*****************
&P.ARSCD1# DC    V(&P.ARSCD10)
&P.ARSCD2# DC    A(0)  ==========> V(&P.ARSCD20)
&P.ARSCD0Z EQU   *
************************************************************
         NARSEPAR
           AIF ('&SECT' EQ 'CSECT').CSECT
&P.ARSCD10 DC    0D'0'
           AGO   .C1
.CSECT     ANOP
&P.ARSCD10 CSECT
.C1        DC  A(0)                       PTR TO NEXT EXTENDED SCD
           DC  CL4'RIS1'                  ID FOR OUR  EXTENDED SCD
           DC  V(&P.ARSCD00)              PTR TO OUR  PREFIX
           DC  A(0)
           DC 2CL8'NARSCD10'
&P.ARSCFA# DC  A(&P.ARSCFA0)           FLAGS OF TYPE $A-
&P.ARSCFB# DC  A(&P.ARSCFB0)           FLAGS OF TYPE $B- FEATURES 0-255
           DC 1A(0)
&P.ARSCFR# DC  A(&P.ARSCFR0)           FLAGS OF TYPE $R-
&P.ARSUBT# DC  A(&P.ARSUBT0)           LOCAL SUBTASK CONTROL BLKS
&P.ARSDA1# DC  A(&P.ARSDA10)           LOCAL ADDL LOG RECORD
&P.ARSDEV# DC  A(&P.ARSDEV0)           CRT DEV. TABL FOR OPCODE="TRT"
&P.ARSTAT# DC  A(0)  ===> V(NAR#STAT)  SYSTEM MINUTE UPDATES -- IN NUC.
&P.ARSMIN# DC  A(0)  ===> V(NAR#STAT)  SYSTEM MINUTE UPDATES -- IN CSA.
&P.ARSDLK# DC  A(0)  ===>              ==>  V(DLLINK)
           DC 2A(0)
&P.ARPSTS# DC  A(&P.ARPSTS0)           LOCAL EXTENDED PSTS
           DC  3A(0)
&P.ARSFMT# DC  A(&P.ARSFMT0)           SYSTEM FORMAT DATA
&P.ARSWAT# DC  A(&P.ARSWAT0)           SYSTEM IWAIT DATA
&P.ARSVTM# DC  A(&P.ARSVTM0)           SYSTEM VTAM  DATA
&P.ARSMDA# DC  A(&P.ARSMDA0)           SYSTEM DYNAL DATA
&P.ARSACS# DC  A(&P.ARSACS0)           SYSTEM ACF2  SIGNON DATA
&P.ARSACT# DC  A(&P.ARSACT0)           SYSTEM ACF2  TRANST DATA
&P.ARSJFC# DC  A(&P.ARSJFC0)           SYSTEM JFCB'S       DATA
&P.ARSTIM# DC  A(&P.ARSTIM0)           TIME OF SEVERAL ACTION REQUESTS.
           DC 16A(0)
.*
.*
.*
************************************************************
*
************************************************************
         NARSEPAR
&P.ARSCFAX DC  2D'0'
           ORG &P.ARSCFAX
&P.ARSCFA0 DC  XL1'0'
&P.ARSCFA1 DC  XL1'0'
&P.ARSCFA2 DC  XL1'0'
&P.ARSCFA3 DC  XL1'0'
&P.ARSCFA4 DC  XL1'0'
&P.ARSCFA5 DC  XL1'0'
&P.ARSCFA6 DC  XL1'0'
&P.ARSCFA7 DC  XL1'0'
&P.ARSCFA8 DC  XL1'0'
&P.ARSCFA9 DC  XL1'0'
&P.ARSCFAA DC  XL1'0'
&P.ARSCFAB DC  XL1'0'
&P.ARSCFAC DC  XL1'0'
&P.ARSCFAD DC  XL1'0'
&P.ARSCFAE DC  XL1'0'
&P.ARSCFAF DC  XL1'0'
           ORG
           DC  2D'0'         (AND THEN SOME SPARES)
******************************
         NARSEPAR
&P.ARSCFBX DC  256D'0'    256 DBL WDS FOR FEATURES #0 -TO- 255.
           ORG &P.ARSCFBX
&P.ARSCFB0 DC     D'0'
           ORG
           DC   4D'0'        (AND THEN SOME SPARES)
******************************
         NARSEPAR
&P.ARSCFRX DC  1D'0'
           ORG &P.ARSCFRX
&P.ARSCFR0 DC  XL1'00'
&P.ARSCFR1 DC  XL1'00'
&P.ARSCFR2 DC  XL1'00'
&P.ARSCFR3 DC  XL1'00'
&P.ARSCFR4 DC  XL1'00'
&P.ARSCFR5 DC  XL1'00'
&P.ARSCFR6 DC  XL1'00'
&P.ARSCFR7 DC  XL1'00'
           ORG
******************************
         NARSEPAR
&P.ARSUBT0 DC 0A(0)
&P.ARSUBTX DC  A(*+4)              PTR TO NEXT UNUSED ADCON
**    NEXT DC IS A TABLE OF ADCONS POINTING TO THE 4-WDS FOR EA S/TASK
           DC  (&NSUB)A(((*-&P.ARSUBTX-4)/4+0)*016+&P.ARSUBTL)
           DC  F'-1'               END MARKER
**    NEXT DC IS                               THE 4-WDS FOR EA S/TASK
&P.ARSUBTL DC  (&NSUB)A(0,0,0,0)
&P.ARSUBTC EQU &P.ARSUBTL+00       TCB ADDR.
&P.ARSUBSA EQU &P.ARSUBTL+04       FSA ADDR.
&P.ARSUBE1 EQU &P.ARSUBTL+08       ECB POSTED BY OS WHEN SUBTASK QUITS.
&P.ARSUBE2 EQU &P.ARSUBTL+12       ECB WATCHED BY SUBTASK FOR QUITTING.
******************************
         NARSEPAR
&P.ARSFMT0 DC  8A(0)
******************************
         NARSEPAR
&P.ARSWAT0 DC  141A(0)
******************************
         NARSEPAR
&P.ARSVTM0 DC  2A(0)
&P.ARSVTMN DC  CL8' '                       NODE NAME
&P.ARSVTMK DC  XL8'0'                       TIME VIA STCK
&P.ARSVTMS DC  XL8'0'                       TIME SUM OF DELTAS
&P.ARSVTMD DC  XL8'0'                       TIME DELTA
&P.ARSVTMX DC  XL8'0'                       TIME MAX DELTA
&P.ARSVTMI DC  XL8'0'                       TIME MIN DELTA
           DC  32A(0)
******************************
         NARSEPAR
&P.ARSMDA0 DC  2A(0)
&P.ARSMDAN DC  CL8' '
&P.ARSMDAK DC  XL8'0'
&P.ARSMDAS DC  XL8'0'
&P.ARSMDAD DC  XL8'0'
&P.ARSMDAX DC  XL8'0'
&P.ARSMDAI DC  XL8'0'
           DC  32A(0)
******************************
         NARSEPAR
&P.ARSACS0 DC  2A(0)
&P.ARSACSN DC  CL8' '
&P.ARSACSK DC  XL8'0'
&P.ARSACSS DC  XL8'0'
&P.ARSACSD DC  XL8'0'
&P.ARSACSX DC  XL8'0'
&P.ARSACSI DC  XL8'0'
           DC  16A(0)
******************************
         NARSEPAR
&P.ARSACT0 DC  2A(0)
&P.ARSACTN DC  CL8' '
&P.ARSACTK DC  XL8'0'
&P.ARSACTS DC  XL8'0'
&P.ARSACTD DC  XL8'0'
&P.ARSACTX DC  XL8'0'
&P.ARSACTI DC  XL8'0'
           DC  16A(0)
******************************
         NARSEPAR
&P.ARSDA10 DC  0D'0'
&P.ARSDATA DC   A(&P.ARSDECB,0)
&P.ARSDRDW DC   Y(&P.ARSDZZZ-*,0),CL8'NARSDATA'
&P.ARSDATB DC   Y(&P.ARSDATC-*,0),CL8'NARSDATB'
&P.ARSDSID DC   XL4'0'
&P.ARSDSOS DC   XL2'0'
&P.ARSDSIM DC   XL6'0'
&P.ARSDSLV DC   XL4'0'
&P.ARSDSLG DC   XL4'0'
&P.ARSDBGN DC   XL16'0'
&P.ARSDTIM DC   A(0)                              TIME (R0) MACRO INST.
&P.ARSDDAT DC   A(0)                                   (R1) MACRO INST.
&P.ARSDSTK DC  2A(0)                              STCK      MACH INSTR.
&P.ARSDSNR DC  2A(0)
&P.ARSDATC DC        Y(&P.ARSDATZ-*,0),CL8'NARSDATC'
&P.ARSDATZ DC        Y(&P.ARSDZZZ-*,0),CL8'NARSDATZ'
           DC   Y(&P.ARSDZZZ-&P.ARSDRDW)
&P.ARSDZZZ EQU *
&P.ARSDECB DC  A(0)
******************************
         NARSEPAR
&P.ARSDEV0 DC  256X'00'             CRT DEV. TABL FOR OPCODE="TRT"
*  NON-ZERO ==> DEV IS REAL/REGULAR CRT AND IS SIGN-ON-ABLE FOR ACF2.
******************************
         NARSEPAR
&P.ARSJFC0 DC  A(&P.ARSJFCJ,&JFCBN,&JFCBL,0)
&P.ARSJFCJ DC  (&JFCBN)CL(&JFCBL)' ' SEVERAL NUC JFCB'S COPIED HERE.
           DC  X'FFFF'
******************************
         NARSEPAR
&P.ARSTIM0 DC 0D'0'                  TIME OF SEVERAL ACTION REQUESTS.
&P.ARSTBLD DC  D'0'                  TIME OF LAST BLDL RESET.
&P.ARSTBLC DC  PL4'0'                  #  OF      BLDL RESETS.
           DC 3D'0'
************************************************************
**
************************************************************
         NARSEPAR
** E.G., SPECIFYING XPSTN=30 WILL GET 31 XPSTS NUMBERED 0-30
*                   XPSTN=255 WILL GET 256 WHICH IS THE MAX FOR NOW.
&IN      SETA  0
           DC  0D'0',C'NARPSTS0'
&P.ARPSTS0 DC  0A(0)
&P.ARPSTSA DC  Y(&XPSTN,&XPSTL)
&P.ARPSTSL DC  (&XPSTN+1)A(0,0)
&P.ARPSTRI EQU &P.ARPSTSL+0  THE L-H WORD IN EACH PAIR=PTR TO OUR PST
&P.ARPSTBM EQU &P.ARPSTSL+4  THE R-H WORD IN EACH PAIR=PTR TO IBM PST
           DC  2F'-1'
************************************************************
**
************************************************************
         NARSEPAR
.*
.*
.*
************************************************************
**     IF THIS IS A DSECT, THEN ISSUE OTHER DSECT MACROS.
************************************************************
           AIF ('&SECT' NE 'DSECT').OVCS98
           AIF ('&PST'  EQ    'NO').OVCS95
&PPP       SETC '&P'
           AIF ('&PP'   EQ      '').OVCS91
&PPP       SETC '&PP'
.OVCS91    ANOP
           NARPST  P=&PPP
.OVCS95    ANOP
.OVCS98    ANOP
         MEND
