         MACRO
&NAME    INUSE &FOOLASM
         GBLB  &LUSED
         GBLC  &USENM(50),&USEW(25)
         LCLA  &A,&D,&B
         LCLB  &F
         LCLC  &X1,&X2
         AIF   ('&NAME' EQ '').CHK
&NAME    DS    0H .                     NAME DEFINED
.CHK     AIF   (&LUSED).GO
         MNOTE 0,'USER ERROR - LUSE NEVER USED, NO KNOWN BASE REGS'
         MEXIT
.GO      SPACE 2
&A       SETA  1
*              THE FOLLOWING REGISTER(S) IN USE:
*                LOCATION           BASE
.LOOP    AIF   ('&USEW(&A)' EQ '').MENDX
&D       SETA  (&A*2)-1
&X1      SETC  '&USENM(&D)'.'           '
&X2      SETC  '&USENM(&D+1)'.'            '
         MNOTE *,'&X1&X2    &USEW(&A)'
&A       SETA  &A+1
&F       SETB  1
         AGO   .LOOP
.MENDX   AIF   (&F).MEXIT
*              ** NO REGISTERS CURRENTLY IN USE **
.MEXIT   SPACE 2
         MEND
