         MACRO
&NAME    CMFLUS   &CNVID,&RETCODE
.*------------------------------------------------------------------
.* LU6.2 CPI-C   FLUSH DATA BUFFERS
.*------------------------------------------------------------------
.*
         AIF   ('&CNVID' EQ '').ERR1
         AIF   ('&RETCODE' EQ '').ERR3
         LA    R1,&CNVID
         ST    R1,PLIST
         LA    R1,&RETCODE
         ST    R1,PLIST+4
         OI    PLIST+4,X'80'
         LA    R1,PLIST
         L     R15,=V(CMFLUS)
         BALR  R14,R15
         MEXIT
.ERR1    MNOTE 12,'CONVERSATION ID IS A REQUIRED PARM'
         MEXIT
.ERR3    MNOTE 12,'RETURN CODE IS A REQUIRED PARM'
         MEXIT
         MEND
