         MACRO
&NAME    CMINIT   &CNVID,&SYMNAME,&RETCODE
.*------------------------------------------------------------------
.* LU6.2 CPI-C   INITIALIZE CONVERSATION
.*------------------------------------------------------------------
.*
         AIF   ('&CNVID' EQ '').ERR1
         AIF   ('&SYMNAME' EQ '').ERR2
         AIF   ('&RETCODE' EQ '').ERR3
         LA    R1,&CNVID
         ST    R1,PLIST
         LA    R1,&SYMNAME
         ST    R1,PLIST+4
         LA    R1,&RETCODE
         ST    R1,PLIST+8
         OI    PLIST+8,X'80'
         LA    R1,PLIST
         L     R15,=V(CMINIT)
         BALR  R14,R15
         MEXIT
.ERR1    MNOTE 12,'CONVERSATION ID IS A REQUIRED PARM'
         MEXIT
.ERR2    MNOTE 12,'SYMBOLIC DEST NAME IS A REQUIRED PARM'
         MEXIT
.ERR3    MNOTE 12,'RETURN CODE IS A REQUIRED PARM'
         MEXIT
         MEND
