         MACRO
&NAME    CMRCV &CNVID,&BUFFER,&RLENGTH,&DATRCV,&RCVDLEN,&STATRCV,      X
               &RTSRCVD,&RETCODE
.*------------------------------------------------------------------
.* LU6.2 CPI-C   RECEIVE DATA
.*------------------------------------------------------------------
.*
         AIF   ('&CNVID' EQ '').ERR1
         AIF   ('&BUFFER' EQ '').ERR2
         AIF   ('&RETCODE' EQ '').ERR3
         AIF   ('&RLENGTH' EQ '').ERR4
         AIF   ('&RTSRCVD' EQ '').ERR5
         LA    R1,&CNVID
         ST    R1,PLIST
         LA    R1,&BUFFER
         ST    R1,PLIST+4
         LA    R1,&RLENGTH
         ST    R1,PLIST+8
         LA    R1,&DATRCV
         ST    R1,PLIST+12
         LA    R1,&RCVDLEN
         ST    R1,PLIST+16
         LA    R1,&STATRCV
         ST    R1,PLIST+20
         LA    R1,&RTSRCVD
         ST    R1,PLIST+24
         LA    R1,&RETCODE
         ST    R1,PLIST+28
         OI    PLIST+28,X'80'
         LA    R1,PLIST
         L     R15,=V(CMRCV)
         BALR  R14,R15
         MEXIT
.ERR1    MNOTE 12,'CONVERSATION ID IS A REQUIRED PARM'
         MEXIT
.ERR2    MNOTE 12,'BUFFER IS A REQUIRED PARM'
         MEXIT
.ERR3    MNOTE 12,'RETURN CODE IS A REQUIRED PARM'
         MEXIT
.ERR4    MNOTE 12,'SEND LENGTH IS A REQUIRED PARM'
         MEXIT
.ERR5    MNOTE 12,'REQUEST_TO_SEND_RECEIVED IS A REQUIRED PARM'
         MEXIT
         MEND
