         MACRO
&NAME    CMSST    &CNVID,&SENDSTATE,&RETCODE
.*------------------------------------------------------------------
.* LU6.2 CPI-C   EXTRACT CONVERSATION STATE
.*------------------------------------------------------------------
.*
         AIF   ('&CNVID' EQ '').ERR1
         AIF   ('&SENDSTATE' EQ '').ERR2
         AIF   ('&RETCODE' EQ '').ERR3
         LA    R1,&CNVID
         ST    R1,PLIST
         LA    R1,&SENDSTATE
         ST    R1,PLIST+4
         LA    R1,&RETCODE
         ST    R1,PLIST+8
         OI    PLIST+8,X'80'
         LA    R1,PLIST
         L     R15,=V(CMSST)
         BALR  R14,R15
         MEXIT
.ERR1    MNOTE 12,'CONVERSATION ID IS A REQUIRED PARM'
         MEXIT
.ERR2    MNOTE 12,'SEND STATE IS A REQUIRED PARM'
         MEXIT
.ERR3    MNOTE 12,'RETURN CODE IS A REQUIRED PARM'
         MEXIT
         MEND
