         MACRO
&NAME    REMPOP &OPTION
.*DIALOG MANAGER MACRO -- DIALOG MANAGEMENT SERVICES (SC34-4021)
.*------------------------------------------------------------------
.* DIALOG MANAGER SERVICE: REMPOP   STOP  POPUP WINDOW MODE
.*
.* (OPTIONAL)  OPTION   - ALL    WILL REMOVE ALL POPUP WINDOWS
.*--------------------------------------------------------------------
         LCLC  &REMV
         LCLC  &BRANCH
         LCLC  &REMPPRM
&BRANCH  SETC  'RMP'.'&SYSNDX'
&REMPPRM SETC  'REMP'.'&SYSNDX'
&REMV    SETC  'A(REMPOP+X''80000000'')'
         AIF   ('&OPTION' EQ '').DONE
&REMV    SETC  'A(REMPOP)'
.DONE    ANOP
&NAME    B     &BRANCH
         CNOP  0,4
&REMPPRM DC    &REMV
         DC    A(&OPTION+X'80000000')
&BRANCH  EQU   *
         LA    R1,&REMPPRM
         L     R15,SAVEISP
         BALR  R14,R15
         MEXIT
         MEND
