         MACRO
&NAME    TBDELETE &TBNAM
.*DIALOG MANAGER MACRO -- DIALOG MANAGEMENT SERVICES (SC34-4021)
.*------------------------------------------------------------------
.* DIALOG MANAGER SERVICE: TBDELETE   DELETE A ROW TO TABLE
.*   FORMAT:   TBDELETE   TABLENAME
.*
.* (REQUIRED)  TABLENAME- NAME OF TABLE TO BE CREATED.
.*--------------------------------------------------------------------
         LCLC  &TBEXLST
         LCLC  &TBADPRM
         LCLC  &BRANCH
&TBEXLST SETC  'TBEX'.'&SYSNDX'        VARIABLE NAME FOR EXTVARS
&TBADPRM SETC  'TBAP'.'&SYSNDX'        VARIABLE NAME FOR PARMLIST
&BRANCH  SETC  'TBAD'.'&SYSNDX'        VARIABLE NAME FOR BRANCH
         AIF   ('&TBNAM' EQ '').ERR
&NAME    CNOP  0,4
         B     &BRANCH
&TBADPRM DC    A(TBDELETE)
         DC    A(&TBNAM+X'80000000')
.FINIS   ANOP
&BRANCH  EQU   *
         LA    R1,&TBADPRM
         AIF   (D'SAVEISP).DEFINED
         L     R15,=V(SAVEISP)         ADDRESS OF ISPLINK
         AGO   .CALL
.DEFINED ANOP
         L     R15,SAVEISP             ADDRESS OF ISPLINK
.CALL    ANOP
         BALR  R14,R15
         MEXIT
.ERR     MNOTE 12,'TABLENAME IS A REQUIRED PARM'
         MEXIT
         MEND
