         MACRO
&NAME    TBEND &TBNAM
.*DIALOG MANAGER MACRO -- DIALOG MANAGEMENT SERVICES (SC34-4021)
.*------------------------------------------------------------------
.* DIALOG MANAGER SERVICE: TBEND       CLOSE A TABLE WITHOUT SAVING
.*   FORMAT:   TBEND      TABLENAME
.*
.* (REQUIRED)  TABLENAME- NAME OF TABLE TO BE ACTED UPON.
.*--------------------------------------------------------------------
         AIF   ('&TBNAM' EQ '').ERR
         LCLC  &BRANCH
         LCLC  &TBENDPRM
&BRANCH  SETC  'TBE'.'&SYSNDX'        VARIABLE NAME FOR BRANCH
&TBENDPRM SETC 'TBEP'.'&SYSNDX'       VARIABLE NAME FOR PARMLIST
         B     &BRANCH
         CNOP  0,4
&TBENDPRM EQU  *
         DC    A(TBEND)
         DC    A(&TBNAM+X'80000000')
&BRANCH  EQU   *
         LA    R1,&TBENDPRM
         L     R15,SAVEISP
         BALR  R14,R15
         MEXIT
.ERR     MNOTE 12,'TABLENAME IS A REQUIRED PARM'
         MEXIT
         MEND
