         MACRO
&NAME    TBTOP &TBNAM
.*DIALOG MANAGER MACRO -- DIALOG MANAGEMENT SERVICES (SC34-4021)
.*------------------------------------------------------------------
.* DIALOG MANAGER SERVICE: TBTOP         SET CRP TO THE TOP OF A TABLE
.*   FORMAT:   TBTOP      TABLENAME
.*
.* (REQUIRED)  TABLENAME- NAME OF TABLE TO BE ACTED UPON.
.*--------------------------------------------------------------------
         LCLC  &BRANCH
         LCLC  &TBTPPRM
&BRANCH  SETC  'TBTO'.'&SYSNDX'
&TBTPPRM SETC  'TBTP'.'&SYSNDX'
         AIF   ('&TBNAM' EQ '').ERR
&NAME    B     &BRANCH
         CNOP  0,4
&TBTPPRM DC    A(TBTOP)
         DC    A(&TBNAM+X'80000000')
&BRANCH  LA    R1,&TBTPPRM
         L     R15,SAVEISP
         BALR  R14,R15
         MEXIT
.ERR     MNOTE 12,'TABLENAME IS A REQUIRED PARM'
         MEXIT
         MEND
