*          DATA SET CBT1428    AT LEVEL 001 AS OF 03/27/83
*    PROGRAM STARTS ABOUT 155 LINES DOWN                                00001
         MACRO                                                          00002
&NAME    SAVEALL &RENT,&REG=3,&EQU=YES,&ID=NO                           00003
         GBLB  &SAVRENT                                                 00004
         GBLB  &REGSW                                                   00005
         GBLB  &TIME                                                    00006
         GBLC  &SAVNDX                                                  00007
&SAVNDX  SETC  '&SYSNDX'                                                00008
&NAME    CSECT                                                          00009
         AIF   ('&SAVRENT' EQ '1').NOTFREE                              00010
         AIF   ('&REGSW' EQ '1').NOEQU                                  00011
         AIF   ('&EQU' NE 'YES').NOEQU                                  00012
&REGSW   SETB  1                                                        00013
         SPACE                                                          00014
*********************************************************************** 00015
********           DEFINITION OF GENERAL REGISTERS             ******** 00016
*********************************************************************** 00017
R0       EQU   0    GENERAL REGISTER ZERO                               00018
R1       EQU   1    GENERAL REGISTER ONE                                00019
R2       EQU   2    GENERAL REGISTER TWO                                00020
R3       EQU   3    GENERAL REGISTER THREE                              00021
R4       EQU   4    GENERAL REGISTER FOUR                               00022
R5       EQU   5    GENERAL REGISTER FIVE                               00023
R6       EQU   6    GENERAL REGISTER SIX                                00024
R7       EQU   7    GENERAL REGISTER SEVEN                              00025
R8       EQU   8    GENERAL REGISTER EIGHT                              00026
R9       EQU   9    GENERAL REGISTER NINE                               00027
R10      EQU   10   GENERAL REGISTER TEN                                00028
R11      EQU   11   GENERAL REGISTER ELEVEN                             00029
R12      EQU   12   GENERAL REGISTER TWELVE                             00030
R13      EQU   13   GENERAL REGISTER THIRTEEN                           00031
R14      EQU   14   GENERAL REGISTER FOURTEEN                           00032
R15      EQU   15   GENERAL REGISTER FIFTEEN                            00033
         SPACE                                                          00034
RA       EQU   10   GENERAL REGISTER TEN                                00035
RB       EQU   11   GENERAL REGISTER ELEVEN                             00036
RC       EQU   12   GENERAL REGISTER TWELVE                             00037
RD       EQU   13   GENERAL REGISTER THIRTEEN                           00038
RE       EQU   14   GENERAL REGISTER FOURTEEN                           00039
RF       EQU   15   GENERAL REGISTER FIFTEEN                            00040
*********************************************************************** 00041
********             END OF REGISTER DEFINITIONS               ******** 00042
*********************************************************************** 00043
         SPACE                                                          00044
.NOEQU   ANOP                                                           00045
         SAVE  (14,12)                                                  00046
         AIF   ('&REG' EQ '').MESS                                      00047
         BALR  &REG(1),0                                                00048
         AIF   (N'&REG EQ 1).A                                          00049
         AIF   (N'&REG EQ 2).B                                          00050
         AIF   (N'&REG EQ 3).C                                          00051
         AIF   (N'&REG EQ 4).D                                          00052
         AIF   (N'&REG EQ 5).E                                          00053
         MNOTE *****,'EXCESSIVE BASE REGISTERS -- 5 ASSUMED *****'      00054
         AGO   .E                                                       00055
.MESS    MNOTE 12,'***** NO BASE REGISTER SPECIFIED *****'              00056
         MEXIT                                                          00057
.NOTFREE MNOTE 12,'***** ENDALL NOT ISSUED PRIOR TO NEW SAVEALL *****'  00058
         MEXIT                                                          00059
.E       USING *,&REG(1),&REG(2),&REG(3),&REG(4),&REG(5)                00060
Q&SYSNDX L     &REG(2),=A(Q&SYSNDX+4096)     LOAD BASE REGISTERS        00061
         L     &REG(3),=A(Q&SYSNDX+8192)                                00062
         L     &REG(4),=A(Q&SYSNDX+12288)                               00063
         L     &REG(5),=A(Q&SYSNDX+16384)                               00064
         AGO   .END                                                     00065
.D       USING *,&REG(1),&REG(2),&REG(3),&REG(4)                        00066
Q&SYSNDX L     &REG(2),=A(Q&SYSNDX+4096)     LOAD BASE REGISTERS        00067
         L     &REG(3),=A(Q&SYSNDX+8192)                                00068
         L     &REG(4),=A(Q&SYSNDX+12288)                               00069
         AGO   .END                                                     00070
.C       USING *,&REG(1),&REG(2),&REG(3)                                00071
Q&SYSNDX L     &REG(2),=A(Q&SYSNDX+4096)     LOAD BASE REGISTERS        00072
         L     &REG(3),=A(Q&SYSNDX+8192)                                00073
         AGO   .END                                                     00074
.B       USING *,&REG(1),&REG(2)                                        00075
Q&SYSNDX L     &REG(2),=A(Q&SYSNDX+4096)     LOAD BASE REGISTER         00076
         AGO   .END                                                     00077
.A       USING *,&REG(1)                                                00078
.END     ANOP                                                           00079
         AIF   ('&RENT' NE 'RENT').NORENT                               00080
&SAVRENT SETB  1                                                        00081
         GETMAIN R,LV=4096         GET STORAGE FOR SAVE AREA            00082
         ST    13,4(1)             SET UP FORWARD CHAIN                 00083
         ST    1,8(13)             SET UP BACKWARD CHAIN                00084
         L     0,20(0,13)          RESET REGISTER 0                     00085
         L     1,24(0,13)          RESET REGISTER 1                     00086
         L     13,8(0,13)          LOAD SAVE AREA ADDRESS               00087
         B     J&SYSNDX           BRANCH AROUND LTORG                   00088
         AGO   .RENT                                                    00089
.NORENT  ANOP                                                           00090
&TIME    SETB  1                                                        00091
         ST    13,SAVE&SYSNDX+4    SET UP FORWARD CHAIN                 00092
         LA    1,SAVE&SYSNDX                                            00093
         ST    1,8(0,13)           SET UP BACKWARD CHAIN                00094
         L     1,24(0,13)          RESET REGISTER 1                     00095
         LA    13,SAVE&SYSNDX                                           00096
         B     J&SYSNDX           BRANCH AROUND BASE REGISTER CONST     00097
SAVE&SYSNDX DC 18F'0'                                                   00098
.RENT    ANOP                                                           00099
         LTORG                                                          00100
         AIF   ('&ID' NE 'YES').NOID                                    00101
         DC    CL8'&SYSDATE'                                            00102
         DC    CL8'&SYSTIME'                                            00103
.NOID    ANOP                                                           00104
J&SYSNDX DS    0H                                                       00105
         MEND                                                           00106
         MACRO                                                          00107
&NAME    ENDALL &CODE=                                                  00108
         GBLB  &TIME                                                    00109
         GBLB  &SAVRENT                                                 00110
         GBLC  &SAVNDX                                                  00111
         LCLA  &LEN                                                     00112
         LCLC  &REG                                                     00113
         AIF   ('&CODE' GT '4095').INVRET                               00114
&NAME    DS    0H                                                       00115
         AIF   (K'&CODE LE 0).CHKRENT                                   00116
         AIF   ('&CODE'(1,1) NE '(').CHKRENT                            00117
         AIF   ('&CODE' EQ '(13)' OR '&CODE' EQ '(14)').INVREG          00118
         AIF   ('&CODE' EQ '(0)' OR '&CODE' EQ '(1)').INVREG            00119
         AIF   ('&CODE' NE '(15)').CHKRENT                              00120
         LR    2,15               SAVE REG 15 RETURN CODE               00121
.CHKRENT AIF   (NOT &SAVRENT).NOTRENT                                   00122
&SAVRENT SETB  0                                                        00123
         LR    1,13               LOAD SAVE AREA ADDRESS                00124
         L     13,4(0,13)         RE-LOAD REGISTER 13                   00125
         FREEMAIN R,LV=4096,A=(1) FREE SAVE AREA STORAGE                00126
         AGO   .RENT                                                    00127
.NOTRENT ANOP                                                           00128
         AIF   (NOT &TIME).NOSAVE                                       00129
&TIME    SETB  0                                                        00130
         L     13,SAVE&SAVNDX+4   RE-LOAD REGISTER 13                   00131
.RENT    ANOP                                                           00132
         AIF   ('&CODE' EQ '').COND1                                    00133
         AIF   ('&CODE' NE '(15)').CHKREG                               00134
         LR    15,2               GET RETURN CODE BACK FROM R2          00135
         AGO   .ENDIT                                                   00136
.CHKREG  AIF   ('&CODE'(1,1) NE '(').NOTREG                             00137
&LEN     SETA  K'&CODE-2                                                00138
&REG     SETC  '&CODE'(2,&LEN)                                          00139
         LR    15,&REG            GET RETURN CODE                       00140
         AGO   .ENDIT                                                   00141
.NOTREG  ANOP                                                           00142
         LA    15,&CODE           LOAD CODE TO REG 15                   00143
         AGO   .ENDIT                                                   00144
.INVRET  MNOTE 12,'***** RETURN CODE PASSED GREATER THAN 4095 *****'    00145
         MEXIT                                                          00146
.NOSAVE  MNOTE 12,'***** SAVEALL NOT ISSUED PRIOR TO ENDALL *****'      00147
         MEXIT                                                          00148
.INVREG  MNOTE 12,'***** INVALID REGISTER USED FOR RETURN CODE "&CODE"' 00149
         MEXIT                                                          00150
.COND1   LA    15,0               LOAD ZERO (NO CODE) TO REG 15         00151
.ENDIT   ANOP                                                           00152
         RETURN     (14,12),T,RC=(15)                                   00153
         MEND                                                           00154
*          DATA SET DEDIOS     AT LEVEL 001 AS OF 03/24/83              00155
*********************************************************************   00156
*********************************************************************   00157
**                                                                 **   00158
**       THIS PROGRAM HAS TO RUN APF AUTHORIZED.                   **   00159
**                                                                 **   00160
**       CONDITIONALLY FIX DSCB VOLSER IN DSCB, OR                 **   00161
**       TURN RACF BITS ON OR OFF.                                 **   00162
**                                                                 **   00163
**       VALID PARMS ARE:                                          **   00164
**                                                                 **   00165
**       PARM='CUA,VOLSER' FIX VOLSER ALL VOLSERS IF WRONG         **   00166
**       PARM='CUA,RACFON' TURN ALL RACF BITS ON                   **   00167
**       PARM='CUA,NORACF' TURN ALL RACF BITS OFF                  **   00168
**                                                                 **   00169
**       * NOTE * WITH PARMS RACFON AND NORACF VSAM WILL NOT       **   00170
**                BE TOUCHED.                                      **   00171
**                                                                 **   00172
**       WHERE CUA = DEVICE ADDRESS OF VOLUME TO BE CHANGED        **   00173
**                                                                 **   00174
**       SAMPLE JCL.                                               **   00175
**       //TEC107   EXEC PGM=TEC107,PARM='100,NORACF'              **   00176
**       //STEPLIB  DD   DSN=AUTHORIZED.LIBRARY,DISP=SHR           **   00177
**       //SYSPRINT DD   SYSOUT=1                                  **   00178
**                                                                 **   00179
**-----------------------------------------------------------------**   00180
** CHANGES:  ENABLED PROGRAM TO RUN IN AN MVS/XA ENVIRONMENT       **   00180
**              09/03/86                                           **   00180
**                                                                 **   00180
**                                                                 **   00180
**                                                                 **   00180
**                                                                 **   00181
*********************************************************************   00182
*********************************************************************   00183
TEC107   SAVEALL REG=(12)                                               00184
         EJECT                                                          00185
*********************************************************************   00186
*********************************************************************   00187
**                                                                 **   00188
**       CHECK FOR VALID PARM.                                     **   00189
**                                                                 **   00190
*********************************************************************   00191
*********************************************************************   00192
         SPACE                                                          00193
         L     R2,0(R1)                ADDRESS OF PARM FIELD            00194
         LH    R9,0(R2)                LENGTH                           00195
         LTR   R9,R9                   IS THERE A PARM?                 00196
         BZ    NOPARM                      NO.. GET OUT                 00197
         CLC   0(2,R2),=XL2'000A'     LENGTH 10?                        00198
         BNE   BADPARM                    NO - BAD PARM                 00199
         CLC   6(6,R2),=C'VOLSER'      FIX VOLSER IN DSCB?              00200
         BE    PARM1                      YES.. CONTINUE                00201
         CLC   6(6,R2),=C'RACFON'      TURN ON RACF BIT IN DSCB?        00202
         BE    PARM2                      YES.. CONTINUE                00203
         CLC   6(6,R2),=C'NORACF'      TURN OFF RACF NIT IN DSCB?       00204
         BE    PARM3                      YES.. CONTINUE                00205
         B     BADPARM                    NO... PARM INVALID            00206
         SPACE                                                          00207
PARM1    MVI   FLAG,C'1'               SET FIX DSCB VOLSER              00208
         B     START                                                    00209
PARM2    MVI   FLAG,C'2'               SET RACF BIT ON                  00210
         B     START                                                    00211
PARM3    MVI   FLAG,C'3'               SET RACF OFF                     00212
         B     START                                                    00213
         EJECT                                                          00214
*********************************************************************   00215
*********************************************************************   00216
**                                                                 **   00217
**       GET DEVICE ADDRESS AND COVERT IT TO HEX FOR IOSLOOK       **   00218
**                                                                 **   00219
*********************************************************************   00220
*********************************************************************   00221
         SPACE                                                          00222
START    OPEN  (SYSPRINT,(OUTPUT))     OPEN PRINT FILE                  00223
         MVC   ADDRWRK(3),2(R2)        GET DEVICE ADDRESS               00224
         TR    ADDRWRK,HEX             CONVERT EACH BYTE TO HEX         00225
         IC    R4,ADDRWRK+1            GET UNIT ADDRESS                 00226
         SLL   R4,4                    SHIFT LEFT 4 BITS                00227
         STC   R4,ADDRWRK+1            AND RESTORE                      00228
         OC    ADDRWRK+2(1),ADDRWRK+1  'OR' OVER DEVICE ADDRESS         00229
         MVC   ADDRWRK+1(1),ADDRWRK    MOVE CHANNEL ADDRESS RIGHT       00230
         MVI   ADDRWRK,X'00'           ZERO OUT HIGH ORDER BYTE         00231
         SR    R4,R4                   RESET R4                         00232
         ICM   R4,7,ADDRWRK            GET DEVICE ADDRESS (HEX)         00233
         EJECT                                                          00234
*********************************************************************   00235
*********************************************************************   00236
**                                                                 **   00237
**       GET INTO SUPERVISOR MODE KEY 0 AND DO AN IOSLOOK TO       **   00238
**       FIND THE UCB ADDRESS FOR CVAF.                            **   00239
**                                                                 **   00240
*********************************************************************   00241
*********************************************************************   00242
         SPACE                                                          00243
SETSUP   MODESET MODE=SUP,KEY=ZERO     GO TO SUPERVISOR STATE AND KEY 0 00244
         SPACE                                                          00245
IOSLOOK  ST    R13,SAVE13              SAVE MY REG 13                   00246
         LA    R13,IOSSAVE             POINT TO IOS SAVE AREA           00247
         IOSLOOK DEV=(4),UCB=(5)       RETURN UCB ADDRESS IN R5         00248
         SPACE                                                          00249
         L     R13,SAVE13              RESTORE REG 13                   00250
         MODESET MODE=PROB,KEY=NZERO   RESET TO PROBLEM STATE AND KEY   00251
         LTR   R15,R15                 VALID DEVICE?                    00252
         BNZ   BADUCB                     NO...END                      00253
         EJECT                                                          00254
*********************************************************************   00255
*********************************************************************   00256
**                                                                 **   00257
**       HAVE A VALID UCB IS IT A BLANK VOLSER?                    **   00258
**                                                                 **   00259
*********************************************************************   00260
*********************************************************************   00261
         SPACE                                                          00262
         USING UCBOB,R5                                                 00263
GOTUCB   CLC   UCBVOLI,=XL6'00'        BLANK VOLSER?                    00264
         BNE   UNITTST                   NO...CONTINUE                  00265
         WTO   'BLANK UCB',ROUTCDE=(11)  YES..                          00266
         L     R15,8                   SET BAD RETURN CODE              00267
         B     EOF                            AND RETURN                00268
         EJECT                                                          00269
*********************************************************************   00270
*********************************************************************   00271
**                                                                 **   00272
**       CHECK TO SEE IF INDEXED OR NON-INDEXED VTOC               **   00273
**       AND BRANCH TO APPROPRIATE ROUTINE.                        **   00274
**                                                                 **   00275
*********************************************************************   00276
*********************************************************************   00277
         SPACE                                                          00278
UNITTST  CLC   UCBNAME(3),2(R2)        RIGHT UCB?                       00279
         BE    CVAFTST                                                  00280
         ABEND 1,DUMP                                                   00281
         SPACE                                                          00282
CVAFTST  MVC   PVOL,UCBVOLI            PUT VOLSER IN PRINT LINE         00283
         MVC   PUNIT(3),2(R2)          PUT UNIT IN PRINT LINE           00284
         MVC   PPARM(6),6(R2)          PUT PARM IN PRINT LINE           00285
         MVC   VOLUME,UCBVOLI          GET VOLSER FOR ENQ/DEQ           00286
         CVAFTST UCB=(R5)              INDEXED VTOC?                    00287
         SPACE                                                          00288
         B     TSTRTN(R15)             BRANCH TO APPROPRIATE ROUTINE    00289
TSTRTN   DS    0H                                                       00290
         B     NOINDEX                 RC 0 - NO DF/DS UNINDEXED        00291
         B     NOINDEX                 RC 4 - NO INDEXED VTOC           00292
         B     INDEXED                 RC 8 - INDEXED VTOC              00293
         B     NOMOUNT                 RC 12- VOL NOT MOUNTED           00294
         B     NODASD                  RC 16- NOT DASD                  00295
         ABEND 16                      JUST IN CASE                     00296
         EJECT                                                          00297
*********************************************************************   00298
*********************************************************************   00299
**                                                                 **   00300
**       SET UP BUFFER TO READ FIRST DSCB                          **   00301
**                                                                 **   00302
*********************************************************************   00303
*********************************************************************   00304
         SPACE                                                          00305
INDEXED  MVI   IXVTOC,C'1'             SET THIS IS INDEXED VTOC         00306
         SPACE                                                          00307
NOINDEX  BAL   R10,NEWPAGE             AND START A NEW PAGE             00308
         XC    BUFLIST(BFLHLN),BUFLIST CLEAR BUFFER LIST                00309
         XC    BFLE(BFLELN),BFLE       CLEAR BUFFER ENTRY               00310
         MVI   BFLHNOE,X'1'            NUMBER OF DSCBS TO BE READ = 1   00311
         OI    BFLHFL,BFLHDSCB         SET DSCBS AS ARGUMENT            00312
         OI    BFLEFL,BFLECHR          ARGUMENT IS CCHHR                00313
         MVI   BFLELTH,DSCBLTH         LENTGH OF DSCB                   00314
         XC    BFLEARG,BFLEARG         SET TO READ 1ST DSCB             00315
         LA    R3,DS1DSNAM             ADDR OF DSCB BUFFER              00316
         ST    R3,BFLEBUF              PLC ADDR OF DSCB BUFFER IN BFLE  00317
         EJECT                                                          00318
*********************************************************************   00319
*********************************************************************   00320
**                                                                 **   00321
**       READ THE DSCBS AND CHECK RETURN CODE.                     **   00322
**                                                                 **   00323
*********************************************************************   00324
*********************************************************************   00325
         SPACE                                                          00326
SEQLOOP  CVAFSEQ BRANCH=YES,MF=(E,CVPL),UCB=(R5)  GET A DSCB            00327
         SPACE                                                          00328
         LTR   R15,R15                 ANY ERROR?                       00329
         BZ    CKFMT1                     NO....CHECK FOR FORMAT 1      00330
         C     R15,=F'4'               RETURN CODE 4?                   00331
         SPACE                                                          00332
         BH    ABEND12                   NO...ABEND (RC=R15 AND CVSTAT) 00333
         CLI   CVSTAT,X'20'            END OF VTOC?                     00334
         SPACE                                                          00335
         BNE   ABEND12                   NO...ABEND (RC=R15 AND CVSTAT) 00336
         SR    R15,R15                   GIVE ZERO RETURN CODE          00337
         B     EOF                       YES..EOJ                       00338
         EJECT                                                          00339
*********************************************************************   00340
*********************************************************************   00341
**                                                                 **   00342
**       IS IT A FORMAT 1 DSCB?                                    **   00343
**       INITIALIZE PRINT LINE.                                    **   00344
**       GO READ NEXT DSCB IF NOT FORMAT 1.                        **   00345
**                                                                 **   00346
*********************************************************************   00347
*********************************************************************   00348
         SPACE                                                          00349
CKFMT1   CLC   DS1FMTID(1),FORMAT1     FORMAT 1 DSCB?                   00350
         BNE   SEQLOOP                    NO....GET ANOTHER DSCB        00351
         MVC   DSNAME(44),DS1DSNAM     MOVE DSN TO SYSPRINT             00352
         MVC   VOLSER(6),DS1DSSN       MOVE VOLSER TO SYSPRINT          00353
         MVC   STAT(2),=C'  '          SET DEFAULT NOT CHANGED          00354
         MVC   VCHG(11),=C'NOT CHANGED' SET DEFAULT VOLSER NOT CHANGED  00355
         MVC   RCHG(11),=C'NOT CHANGED' SET DEFAULT RACF   NOT CHANGED  00356
         CLI   FLAG,C'1'               DOING VOLSERS ONLY?              00357
         BE    CKDSCBV                    YES... GO CHECK DSCBS         00358
         CLI   FLAG,C'2'               DOING RACF ON ONLY?              00359
         BE    RACON                       YES... GO CHECK IT OUT       00360
         CLI   FLAG,C'3'               DOING RACF OFF ONLY?             00361
         BE    RACOFF                     YES... GO CHECK IT OUT        00362
         ABEND 8                       JUST IN CASE                     00363
         EJECT                                                          00364
*********************************************************************   00365
*********************************************************************   00366
**                                                                 **   00367
**       HERE WE ARE TURNING THE RACF INDICATOR OFF IF IT IS ON    **   00368
**                                                                 **   00369
*********************************************************************   00370
*********************************************************************   00371
         SPACE                                                          00372
RACOFF   TM    DS1DSORG+1,X'08'        VSAM?                            00373
         BO    PRINT                      YES.. DONT TOUCH              00374
         TM    DS1DSIND,X'40'          IS RACF BIT ON?                  00375
         BNO   PRINT                      NO... JUST PRINT              00376
         NI    DS1DSIND,X'BF'   TURN RACF BIT OFF, PRESERVE OTHER INFO  00377
         MVC   RCHG(11),=C'CHANGED    ' SAY WE CHANGED THE VOLSER       00378