         TITLE 'CLUTSPAR -- LOCAL MACRO DEFINITIONS'
         MACRO
         TABSET &VAL
.*       THIS MACRO IS AN AID IN THE GENERATION OF TRANSLATE TABLES
         GBLA  &TABVAL(256),&TABNUM
         LCLA  &I,&N
&I       SETA  2
.NEXT    AIF   (N'&SYSLIST(&I) EQ 2).RANGE
         TABHEX &SYSLIST(&I)
&TABVAL(&TABNUM) SETA &TABVAL(&TABNUM)+&VAL
         AGO   .LOOP
.RANGE   TABHEX &SYSLIST(&I,1)
&N       SETA  &TABNUM
         TABHEX &SYSLIST(&I,2)
.RLOOP   ANOP
&TABVAL(&N) SETA &TABVAL(&N)+&VAL
&N       SETA  &N+1
         AIF   (&N LE &TABNUM).RLOOP
.LOOP    ANOP
&I       SETA  &I+1
         AIF   (&I LE N'&SYSLIST).NEXT
         MEND
         SPACE 3
         MACRO
         TABHEX &HEX
.*       THIS MACRO CONVERTS HEX TO DECIMAL FOR TABSET
         GBLA  &TABNUM
         LCLC  &D(2)
         LCLA  &I
&D(1)    SETC  '&HEX'(1,1)
&D(2)    SETC  '&HEX'(2,1)
&I       SETA  1
.HLOOP   AIF   ('&D(&I)' NE 'A').NA
&D(&I)   SETC  '10'
         AGO   .AGAIN
.NA      AIF   ('&D(&I)' NE 'B').NB
&D(&I)   SETC  '11'
         AGO   .AGAIN
.NB      AIF   ('&D(&I)' NE 'C').NC
&D(&I)   SETC  '12'
         AGO   .AGAIN
.NC      AIF   ('&D(&I)' NE 'D').ND
&D(&I)   SETC  '13'
         AGO   .AGAIN
.ND      AIF   ('&D(&I)' NE 'E').NE
&D(&I)   SETC  '14'
         AGO   .AGAIN
.NE      AIF   ('&D(&I)' NE 'F').AGAIN
&D(&I)   SETC  '15'
.AGAIN   ANOP
&I       SETA  &I+1
         AIF   (&I LE 2).HLOOP
&TABNUM  SETA  16*&D(1)+&D(2)+1
         MEND
         SPACE 3
         MACRO
&N       TABGEN
.*       THIS MACRO GENERATES THE TRANSLATE TABLE DEFINED BY TABSET
         GBLA  &TABVAL(256)
         LCLA  &I
&N       DC    AL1(&TABVAL(1),&TABVAL(2),&TABVAL(3),&TABVAL(4),&TABVAL(*
               5),&TABVAL(6),&TABVAL(7),&TABVAL(8))
&I       SETA  9
.LOOP    ANOP
         DC    AL1(&TABVAL(&I),&TABVAL(&I+1),&TABVAL(&I+2),&TABVAL(&I+3*
               ),&TABVAL(&I+4),&TABVAL(&I+5),&TABVAL(&I+6),&TABVAL(&I+7*
               ))
&I       SETA  &I+8
         AIF   (&I LE 256).LOOP
         MEND
         SPACE 3
         MACRO
         TABRESET
.*       THIS MACRO RESETS ACCUMULATED TABSET VALUES FOR GENERATION
.*       OF A NEW TABLE.
         GBLA  &TABVAL(256)
         LCLA  &I
&I       SETA  1
.LOOP    ANOP
&TABVAL(&I) SETA 0
&I       SETA  &I+1
         AIF   (&I LE 256).LOOP
         MEND
         SPACE 3
         MACRO
&NAME    SEG   &TEXT,&OFF=0
.*       THIS MACRO GENERATES A MESSAGE SEGMENT SUITABLE FOR USE
.*       WITH PUTLINE OR PUTGET.
&NAME    DC    AL2(L'SEG&SYSNDX+4,&OFF) MESSAGE LENGTH AND OFFSET
SEG&SYSNDX DC  C&TEXT             TEXT OF MESSAGE SEGMENT
         SPACE
         MEND
         TITLE 'CLUTSPAR -- IKJPARS-LIKE PARSING ROUTINE'
         GBLC  &OPSYS
&OPSYS   SETC  'MVS'              OR 'SVS' OR 'MVT'
         SPACE
         BANNER CLUTSPAR
         SPACE
***********************************************************************
*                                                                     *
* ROUTINE NAME -                                                      *
*        CLUTSPAR (CALLED AS IKJPARS)                                 *
*                                                                     *
* FUNCTION -                                                          *
*        TO PERFORM THE FUNCTION OF THE TSO SERVICE ROUTINE IKJPARS,  *
*        WHILE PROVIDING AS MUCH FLEXIBILITY AND USER-FRIENDLINESS    *
*        AS PERMITTED BY ITS FORMAL, INFORMAL AND TRADITIONAL         *
*        SPECIFICATIONS. VARIOUS USEFUL AND BENIGN EXTENSIONS ARE     *
*        ALSO PROVIDED.                                               *
*                                                                     *
* ENVIRONMENT -                                                       *
*        PSEUDO-PL/I CREATED ON ENTRY.                                *
*                                                                     *
* LINKAGE -                                                           *
*        LINK FROM A COMMAND PRCESSOR. (IN MVS, THE CALLTSSR MACRO    *
*        MAY ALSO BE USED.)                                           *
*                                                                     *
* PARAMETERS -                                                        *
*        PARSE PARAMETER LIST, AS MAPPED BY THE IKJPPL MACRO, AND     *
*        OTHER PARAMETER LISTS ADDRESSED THEREBY, NOTABLY THE OUTPUT  *
*        OF THE IKJPOSIT, IKJIDENT, IKJKEYWD AND OTHER SYNTAX-        *
*        DEFINITION MACROS.                                           *
*                                                                     *
* RETURN CODES (RETURNED VIA R15) -                                   *
*         0:   SUCCESSFUL EXECUTION                                   *
*         4:   UNABLE TO PROMPT FOR CORRECTION OF INVALID PARAMETERS  *
*         8:   PARSE TERMINATED BY ATTENTION                          *
*        12:   INVALID PARAMETER LIST OR INTERNAL ERROR IN PARSE      *
*        16:   CONDITIONAL GETMAIN FAILED (NO MEMORY AVAILABLE)       *
*        20:   TERMINATION REQUESTED BY CALLER'S VALIDITY CHECK EXIT  *
*        24:   CONFLICTS FOUND IN COBOL SYNTAX DEFINITIONS (IKJOPER,  *
*              IKJTERM AND IKJRSVWD)                                  *
*        28:   TERMINAL DISCONNECTED                                  *
*                                                                     *
* MAJOR INCOMPATIBILITIES -                                           *
*        THE VALIDITY CHECK EXIT FOR A RANGE MAY BE CALLED THREE      *
*        TIMES, ONCE FOR EACH PART AND ONCE FOR THE ENTIRE RANGE.     *
*        THIS HAS THE EFFECT THAT THE SECOND PART OF A RANGE MUST     *
*        ALSO BE A VALID FIRST PART.                                  *
*                                                                     *
*        ONLY FIVE LEVELS OF KEYWORD NESTING ARE ALLOWED (SURELY THAT *
*        IS ENOUGH).                                                  *
*                                                                     *
* DEBUGGING NOTE -                                                    *
*        TO ENABLE A RUN-TIME TRACE BACK ON PROGRAM CHECK, REMOVE     *
*        THE COMMENT INDICATOR FROM THE LIERRSET MACRO BELOW. THIS    *
*        CANNOT BE USED WHEN CLUTSPAR IS INSTALLED AS IKJPARS, AS     *
*        IT ISSUES THE SPIE MACRO, WHICH IS INVALID IN SOME CONTEXTS  *
*        IN WHICH IKJPARS EXECUTES (E.G., CALLED FROM LOGON).         *
*                                                                     *
* COPYRIGHT -                                                         *
*        1981, 1983 RICE UNIVERSITY                                   *
***********************************************************************
         EJECT
TSUCOPRT CSECT
         DC    C'TSU COPYRIGHT RICE UNIVERSITY 1981'
         SPACE
CLUTSPAR LISECT
CLUZPAR  LIENTRY BASE=R11,ISASIZE=DSALEN+768,PARM=R2
         EJECT
*
*        THIS ROUTINE IS A REPLACEMENT FOR THE TSO SERVICE ROUTINE
*        IKJPARS. IT ACCEPTS THE SAME INPUT PARAMETERS AND RETURNS
*        THE SAME OUTPUT TO ITS CALLER, BUT DIFFERS CONSIDERABLY
*        IN THE STYLE OF ITS INTERACTION WITH THE TERMINAL USER.
*        ITS MAIN VIRTUE IS ITS LIBERALITY, ACCEPTING PARAMETER FORMS
*        NOT ALLOWED BY IKJPARS, AND ALLOWING THE USER TO CORRECT
*        ERRORS IN MORE CASES.
*
         SPACE 3
*
*        INITIALIZE
*
         LR    R5,RDSA            SET UP PERM. DSA POINTER
         DROP  RDSA
         USING DSA,R5
         LA    R4,4095(,R11)      SET UP SECOND BASE REG
         USING CLUTSPAR+4095,R4
         XC    IOPL(256),IOPL     CLEAR DSA
         XC    IOPL+256(256),IOPL+256
         XC    IOPL+512(256),IOPL+512
         XC    IOPL+768(DSALEN-768-88),IOPL+768
         MVC   IOPL(12),0(R2)     SAVE UPT, ECT & ECB ADDRS
         MVC   PCL(12),12(R2)     SAVE PCL, ANSWER & CBUF PTRS
         MVI   PCL,0              CLEAR HIGH ORDER PCL BYTE
         MVC   UWA(4),24(R2)      SAVE USER WK AREA ADDR
         LA    R10,SUBWORKS       NO SUBFIELD RECURSION YET
         USING SUBWORK,R10
         L     R9,PCL             FIND FIRST KEYWORD ADDR
         LH    R2,4(,R9)
         AR    R2,R9
         ST    R2,KEY1            SAVE FOR LATER
         L     R2,ANSPTR          FIND ANSWER POINTER
         XC    0(4,R2),0(R2)      CLEAR OLD CONTENTS
         LIBEL PARSTERM,ADDR=GIVEUP    ESTABLISH ERROR ESCAPE POINT
         LH    R1,2(,R9)          GET SIZE OF ANSWER
         MVC   PDLPTR,NULL        CLEAR PDL POINTER FOR TROUBLE
         L     R15,=A(CLUZMINT)
         BALR  R14,R15            CALL MEMORY INITIALIZATION ROUTINE
         L     R3,PDLPTR          FIND PDL START
         LA    R2,8(,R3)          CLEAR THE PDL (EXCEPT THE HEADER)
         SR    R1,R1
         LA    R14,256
         LH    R15,2(,R9)
         SH    R15,=H'9'
INITCLR  BXH   R1,R14,INITLAST
         XC    0(256,R2),0(R2)
         AR    R2,R14
         B     INITCLR
INITLAST EX    R15,INITZERO
         LH    R2,0(,R9)
         AR    R2,R9              ADDRESS END OF PCL
         LH    R3,4(,R9)
         AR    R3,R9              ADDRESS FIRST KEYWORD OR FIELD END
         LA    R9,6(,R9)          FIND ADDR OF FIRST PARM
         ST    R9,PARM1           AND SAVE
         L     R8,CBUF            CLEAR HIGH-ORDER BYTE OF CBUF
         LA    R8,0(,R8)
         ST    R8,CBUF
         ST    R8,CURINP          SAVE AS CURRENT INPUT SOURCE
         LR    R7,R8
         AH    R8,2(,R8)          ADJUST SOURCE REG BY OFFSET
         LA    R8,4(,R8)
         AH    R7,0(,R7)
         BCTR  R7,0               FIND END OF STRING
         LA    R6,1               SET UP R6 & R7 FOR BXLE/BXH
*        LIERRSET PARSERRX        TRACE & STOP AFTER PGM CHECK
         SPACE
*
*        SCAN THE PCL FOR DSNAMES, USERIDS, OR PRINT BYPASS IDENTS.
*        IF ANY ARE FOUND, SLASH MUST BE TREATED SPECIALLY.
*
         LR    R1,R9              START WITH 1ST PARM
         MVI   SKIPF,NOSLASH      ASSUME SLASH IS JUST A CHARACTER
INITSLSH MVC   ALIGN(1),0(R1)
         NI    ALIGN,X'E0'        ISOLATE PCE TYPE
         BZ    INITSLEN           BRANCH IF IKJSUBF/ENDP
         CLI   ALIGN,X'80'        IKJIDENT?
         BE    INITID             YES, CHECK FOR PTBYPS
         CLI   ALIGN,X'20'        IKJPOSIT?
         BNE   INITSLOP           NO.
         CLI   6(R1),6            IS IT A USERID?
         BL    INITSLOP           NO.
         CLI   6(R1),8            MAYBE, CHECK FOR DSNAME OR DSTHING
         AIF   ('&OPSYS' NE 'MVS').NMVS3B
         BNH   INITHIDE           SOMETHING WITH A PASSWORD
         CLI   6(R1),12           IS IT A UID2PSW?
         BNE   INITSLOP           NO, PASS IT BY
         AGO   .JMVS3B
.NMVS3B  BH    INITSLOP           BRANCH IF NOT
.JMVS3B  ANOP
INITHIDE NI    SKIPF,255-NOSLASH  SLASH MUST BE SPECIAL
         B     SYN
INITID   TM    1(R1),X'04'        IS THIS REALLY AN IKJEXTEN?
         BNZ   INITSLOP           YES, CAN'T BE BYPASS
         TM    6(R1),X'20'        IS THIS IDENT BYPASS?
         BNZ   INITHIDE           YES, SLASH MUST BE FACED
INITSLOP MVC   ALIGN,2(R1)        FIND NEXT PCE
         AH    R1,ALIGN
         B     INITSLSH           AND CONTINUE
*
*        THE ACCOUNT COMMAND IS VERY CLEVER AND STICKS END OF FIELD
*        INDICATORS INTO THE MIDDLE OF A LIST OF IKJPOSIT PCE'S. WE
*        HAVE TO USE THE FIRST KEYWORD POINTER IN THE IKJPARM/IKJSUBF
*        EXPANSION TO FIND OUR WAY ONWARD TO THE TRUE FIELD END.
*
INITSLEN CR    R1,R3              IS THIS AT OR PAST THE FIRST KEYWORD?
         BNL   INITNORM           YES, PROCEED NORMALLY
         LR    R1,R3              NO, SKIP TO FIRST KEYWORD
         B     INITSLSH           AND PROCEED FROM THERE
INITNORM AR    R1,R6
         CR    R1,R2              REACHED THE END?
         BNL   SYN                YES, GO TO IT
         MVC   ALIGN,0(R1)        NO, FIND NEXT KEYWORD OFFSET
         LH    R3,ALIGN
         A     R3,PARM1           POINT TO IT
         SH    R3,=H'6'           AFTER ADJUSTMENTS
         LA    R1,2(,R1)          SKIP INTO SUBFIELD
         B     INITSLSH
INITZERO XC    0(0,R2),0(R2)      CLEAR PDL
         SPACE
         LTORG
         TITLE 'CLUTSPAR -- POSITIONAL PARAMETER HANDLING'
*
*        THIS CODE IS ENTERED TO PARSE AN ENTIRE COMMAND LINE.
*        IT IS ALSO CALLED RECURSIVELY TO PROCESS A KEYWORD SUBFIELD
*        OR VARIABLE SUBSCRIPT.
*
SYN      XC    COMMAX,COMMAX      NOTICE A LEADING COMMA
         SPACE
*
*        SCAN THE PCE'S
*
SYNLOOP  NI    SKIPF,NOSLASH      CLEAR SKIP FLAGS
         MVI   LISTF,0            NOT A LIST YET
         MVC   ALIGN(1),0(R9)     ISOLATE TYPE FLAGS
         NI    ALIGN,X'E4'
         BZ    SYNPEND            IF IKJENDP/IKJSUBF FOUND
         CLI   ALIGN,X'40'
         BL    SYNPOS             IF IKJPOSIT
         BE    SYNKEY             IF IKJKEYWD
         CLI   ALIGN,X'80'        CHECK FOR IKJIDENT
         BNE   SYNPOS2
         MVC   PCBYPASS,6(R9)     SET BYPASS FLAG IF NECESSARY
         NI    PCBYPASS,X'20'
         B     SYNPOS2            SKIP POSITIONAL CODE
         SPACE
*
*        PROCESS POSITIONAL
*
SYNPOS   CLI   6(R9),10           SPACE TYPE?
         BNE   SYNNSPAC           NO.
         OI    SKIPF,NOSKIP       YES, INHIBIT FULL SKIP
SYNDLMIS MVI   DELIM,X'FF'        SET MISSING DELIM JUST IN CASE
         B     SYNPOS2
SYNNSPAC CLI   6(R9),2            DELIM OR STRING?
         BE    SYNTEXT            STRING, DON'T SKIP AT ALL
         BL    SYNDLMIS           DELIM, SET MISSING IN ADVANCE
         MVI   DELIM,0            NEITHER, RESET DELIMITER
         SPACE
*
*        SKIP SEPARATORS BEFORE POSITIONAL
*
SYNPOS2  L     R15,=A(CLUZSKIP)
         BALR  R14,R15            SKIP BLANKS, TABS, COMMAS ETC.
         B     *+4(R15)           ANYTHING AFTER?
         B     SYNTEXT            YES.
         TM    COBFLAGS,COBSUB    NO, IN SUBSCRIPT LIST?
         BNZ   SYNOSUBS           YES.
         TM    OPERFLGS,OPERACT   NO, IN EXPRESSION MODE?
         BNZ   EXPROMIT           YES, ESCAPE TO EXPRESSION ROUTINE
         B     SYNORMIT           NO, HANDLE NORMAL OMISSION
         SPACE
*
*        CALL RECOGNITION ROUTINE
*
SYNTEXT  TM    COBFLAGS,COBSUB    SUBSCRIPT PROCESSING?
         BNZ   SYNNEST            YES, NESTING ALREADY SET
         TM    OPERFLGS,OPERACT   NO, WITHIN EXPRESSION?
         BNZ   SYNNEST            YES.
         MVI   NESTLEVL,LEVITEM   NO, SET ITEM NESTING LEVEL
         ST    R9,OWNERID         DEFINE PCE AS MEMORY OWNER
SYNNEST  SR    R2,R2              DETERMINE TYPE AGAIN
         IC    R2,0(,R9)
         SRL   R2,5
         SLL   R2,2
         B     *+4(R2)
         BAL   R6,PARSRC12        NOT POSSIBLE HERE
         B     SYNPOSIT           IKJPOSIT
         BAL   R6,PARSRC12
         BAL   R6,PARSRC12
         B     SYNID              IKJIDENT
         B     SYNWORD            IKJRSVWD
         B     SYNTERM            IKJTERM
         B     SYNOPER            IKJOPER
         SPACE
SYNPOSIT SR    R15,R15
         IC    R15,6(,R9)         GET TYPE OF IKJPOSIT
         SLL   R15,2
         L     R15,RECOGS-4(R15)  SELECT RECOGNIZER
         B     SYNREC             JOIN OTHER CASES
SYNWORD  L     R15,=A(CLUZWORD)   RESERVED WORD RECOGNIZER
         B     SYNREC
SYNOPER  L     R15,=A(CLUZOPER)   OPER START ROUTINE
         B     SYNREC
SYNTERM  TM    6(R9),X'08'        IS THIS A SUBSCRIPT TERM?
         BZ    SYNTNSUB           NO.
         TM    COBFLAGS,COBSUB    YES, ARE WE IN SUBSCRIPT MODE?
         BZ    SYNNEXT            NO, JUST SKIP IT
SYNTNSUB L     R15,=A(CLUZCNST)   ASSUME CONSTANT TERM
         TM    6(R9),X'20'
         BNZ   SYNREC             GO ON WHEN WE GET IT RIGHT
         L     R15,=A(CLUZSTMT)   NEXT TRY STMT
         TM    6(R9),X'80'
         BNZ   SYNREC
         L     R15,=A(CLUZCVAR)   ELSE VAR OR ANY
         B     SYNREC
SYNID    TM    1(R9),X'04'        REALLY IKJEXTEN?
         BNZ   SYNEXTN            YES.
         L     R15,=A(CLUZIDEN)   IKJIDENT RECOGNIZER
         B     SYNREC
SYNEXTN  L     R15,=A(CLUZEXTN)   USER EXTENSION INTERFACE
         SPACE
SYNREC   OC    BYPASS,PCBYPASS    FORCE SUPPRESSION OF BYPASS PARM
         NI    COBFLAGS,COBSUB
         BNZ   SYNSBPDE           BRANCH IF SUBSCRIPT
         MVI   COBFLGS1,0
         MVC   ALIGN,4(R9)        FIND PDL OFFSET
         LH    R1,ALIGN
         A     R1,PDLPTR          ADDRESS PDE
         TM    1(R9),X'80'        LIST POSSIBLE?
         BO    LIST               YES.
         MVI   SUBFD1,0           NO, TURN OFF SUBFIELD/LIST SWITCH
         MVI   RANGEF,0           RESET RANGE FLAGS
         B     SYNRECG
SYNSBPDE L     R1,SUBSPDE         FIND PDE FOR THIS SUBSCRIPT
         SPACE
SYNRECG  LR    R3,R15             SAVE RECOGNIZER ENTRY
         ST    R8,PREVPOS         SAVE STARTING POINT FOR SCAN
         MVI   PASSF,0            TURN OFF PASSWORD FLAGS
         BALR  R14,R15            CALL RECOGNIZER
         TM    COBFLAGS,COBSUB    HANDLING SUBSCRIPT?
         BNZ   SYNRET(R15)        YES, SKIP OPER CHECK
         TM    OPERFLGS,OPERACT   WITHIN AN EXPRESSION?
         BNZ   EXPRRET(R15)       YES, ENTER EXPRESSION ROUTINE
         B     *+4(R15)           WAS THIS PARM FOUND?
SYNRET   B     SYNOK1             YES.
         B     SYNOMIT            NO, IT IS MISSING
         B     SYNINV             YES, BUT IT IS INVALID
         BAL   R6,PARSRC12        SHOULD NOT OCCUR HERE
         B     SYNCORCT           PROMPTING FOR TERM SUCCESSFUL
         B     SYNBAD             PROMPTING FOR TERM UNSUCCESSFUL
         SPACE
*
*        CHECK FOR SUBSCRIPTS IF REQUESTED BY RECOGNIZER
*
SYNOK1   TM    COBFLAGS,COBSUBOK  MAY THERE BE A SUBSCRIPT?
         BZ    SYNNOSUB           NO.
SYNSUBS  BAL   R14,SUBSIN         YES, CALL SUBSCRIPT ROUTINE TO CHECK
         SPACE
*
*        GET A PASSWORD IF REQUESTED BY RECOGNIZER
*
SYNNOSUB TM    PASSF,PASSABLE     MAY THIS PARM HAVE A PASSWORD?
         BZ    SYNVEX             NO.
         L     R2,PASSPDE         YES, ADDR PASSWORD PDE PART
         BAL   R14,PASS           PROCESS PASSWORD
         SPACE
*
*        INTERFACE TO VALIDITY CHECK EXIT
*
SYNVEX   BAL   R14,VEX            INTERFACE TO VALIDITY CHECK EXIT
         B     *+4(R15)           WHAT HAPPENED?
         B     SYNVAL             EVERYTHING'S OK
         B     SYNCORCT           REPLACEMENT DATA ENTERED
         B     SYNMISS            UNABLE TO FIX IT UP
         LR    R2,R1              SUBSCRIPT REQUIRED, STACK (
         MVC   ALIGN,=H'1'
         LA    R1,=C'('
         OI    INSFLAG,DUMMYSUB   SHOW PUSHING DUMMY SUBSCRIPT
         L     R15,=A(CLUZPUSH)
         BALR  R14,R15
         LR    R1,R2              RESTORE R1
         OI    COBFLAGS,COBIMMSB  SHOW SUBSCRIPT NEARBY
         B     SYNSUBS            GO GET SOME SUBSCRIPTS
         SPACE
SYNMISS  OI    RANGEF,RANGE1NV    NOTE PROMPT FAILURE
         SPACE
*
*        CHECK FOR & HANDLE THE SECOND PART OF A RANGE
*
SYNVAL   TM    1(R9),X'20'        RANGE PERMITTED?
         BZ    SYNOK              NO.
         BAL   R14,RANG           YES, LOOK FOR SECOND PART
         B     *+4(R15)           WHAT HAPPENED?
         B     SYNOK              ALL IS WELL
         B     SYNRETRY           REPLACEMENT DATA PROVIDED
*                                 ELSE PROMPT FAILURE
         SPACE
*
*        SKIP TO NEXT PCE
*
SYNOK    XC    OMIT1,OMIT1        CLEAR BACKUP POINT
         MVI   PCBYPASS,X'00'     RESET PCE BYPASS FLAG
         MVI   BYPASS,0
         TM    COBFLAGS,COBSUB    IN SUBSCRIPT MODE?
         BNZ   SYNOKSUB           YES, SPECIAL CASE
         TM    DEFTF,DEFTPOS      WAS THIS A DEFAULT VALUE?
         BNZ   DEFTRET            YES, RETURN TO DEFAULT ROUTINE
SYNACPT  MVI   NESTLEVL,0         CANCEL ALL NESTING
         TM    ALCFLAGS,ACPTREQ   IS ACCEPT REQUIRED?
         BZ    SYNNEXT            NO.
         L     R15,=A(CLUZACPT)
         BALR  R14,R15            YES, TELL MEMORY MANAGER TO ACCEPT
SYNNEXT  BAL   R14,FNXT           FIND THE NEXT PCE
         LR    R9,R1              COPY TO USUAL REGISTER
         B     SYNLOOP
         SPACE
*
*        HANDLE OMITTED POSITIONAL
*
SYNOMIT  TM    COBFLAGS,COBSUB    IN A SUBSCRIPT LIST?
         BNZ   SYNOSUBS           YES, HANDLE SUBSCRIPT OMISSION
SYNORMIT TM    0(R9),X'10'        IS THIS REQUIRED?
         BNZ   SYNRQR             YES.
         OC    OMIT1,OMIT1        NO, IS THIS THE FIRST MISSING?
         BNZ   SYNNEXT            NO.
         ST    R9,OMIT1           YES, SET BACKUP POINT
         B     SYNNEXT
         SPACE
*
*        HANDLE PROMPT
*
SYNRQR   CR    R8,R7              ANYTHING LEFT TO REJECT?
         BNH   SYNFINV            YES, REJECT IT
SYNNOMIT BAL   R14,FDEF           NO, FIND THE PROMPT STRING
         L     R15,=A(CLUZREQR)
         BALR  R14,R15            FORCE ENTRY
         B     *+4(R15)           HOW DID IT GO?
         B     SYNRETRY           GREAT, TRY AGAIN
         B     SYNOK              COULDN'T PROMPT, SKIP TO NEXT
         SPACE
*
*        DECIDE WHAT TO REJECT FOR MISSING REQUIRED POSITIONAL
*
SYNFINV  CLI   0(R8),C')'         DOES A ) FOLLOW?
         BNE   SYNITEM            NO, FIND ITEM TO REJECT
         CLI   SUBFLAG,0          YES, ARE WE IN A SUBFIELD?
         BNE   SYNNOMIT           YES, NO REJECT, JUST PROMPT
SYNITEM  L     R15,=A(CLUZITEM)
         BALR  R14,R15            FIND TEXT TO REJECT
         C     R3,RECOGS+4        INVALID STRING?
         BNE   SYNINV             NO.
         CLI   DELIM,X'FF'        YES, WAS DELIMITER MISSING?
         BNE   SYNINV             NO.
         MVI   DELIM,0
         MVC   VMSG,=A(NODELIM)   YES, GIVE CLARIFYING LEVEL2 MSG
         SPACE
*
*        HANDLE INVALID POSITIONAL
*
SYNINV   BAL   R14,INV            GIVE INVALID/REENTER
         MVI   BYPASS,X'00'       RESET BYPASS FLAG
         B     *+4(R15)           WAS THE PROMPT OK?
         B     SYNCORCT           YES, TRY AGAIN
*                                 NO, JUST FORGET THIS
         SPACE
*
*        IF A PASSWORD OR SUBSCRIPT WAS POSSIBLE FOR AN UNCORRECTED
*        INVALID PARAMETER, CHECK FOR IT TO AVOID MISTAKING IT FOR
*        SOMETHING ELSE.
*
         TM    PASSF,PASSABLE     PASSWORD PERMITTED?
         BZ    SYNMISS            NO.
         TM    PASSF,PASSCAN      YES, ALREADY SCANNED FOR IT?
         BNZ   SYNMISS            YES.
         L     R2,PASSPDE         NO, FIND PASSWORD PDE
         MVI   LEFTOVER,X'FF'     SET PASSWORD FOR INVALID PARM FLAG
         BAL   R14,PASS           CHECK FOR A PASSWORD
         B     SYNPAST
SYNBAD   TM    COBFLAGS,COBSUBOK  SUBSCRIPT POSSIBLE HERE?
         BZ    SYNMISS            NO.
         MVI   LEFTOVER,X'FF'     YES, SET LEFTOVERS FLAG
         BAL   R14,SUBSIN         CHECK FOR DANGLING SUBSCRIPT
SYNPAST  MVI   LEFTOVER,0         RESET LEFTOVER PASSWORD FLAG
         B     SYNMISS            NOW TREAT AS MISSING
         SPACE
SYNCORCT TM    COBFLAGS,COBSUB    WORKING ON SUBSCRIPT?
         BNZ   SYNCLSUB           YES.
         LR    R2,R1              NO, SAVE PDE ADDRESS
         BAL   R14,SIZE           GET SIZE OF PDE
         BCTR  R1,0
         EX    R1,SYNCLR          CLEAR OUT THE PDL
         B     SYNRETRY
SYNCLSUB XC    0(19,R1),0(R1)     CLEAR OUT SUBSCRIPT PDE
         SPACE
SYNRETRY OC    OMIT1(4),OMIT1     ANY PREVIOUS ADJACENT PARMS OMITTED?
         BZ    SYNPOS2            NO.
         L     R9,OMIT1           YES, BACKUP TO 1ST TO RETRY
         MVC   OPERPART,OMITPART  RESTORE PREVIOUS EXPRESSION PART
         TM    OPERFLGS,OPERACT+OPEREXPR    HANDLING A LEVEL 88 ITEM?
         BNM   SYNPOS2            NO, LEAVE OPERFLGS ALONE
         TM    COBFLAGS,COBSUB    YES, IN A SUBSCRIPT?
         BNZ   SYNPOS2            YES, JUST PROCEED
         MVI   OPERFLGS,0         NO, LEAVE EXPRESSION MODE
         B     SYNPOS2
SYNCLR   XC    0(0,R2),0(R2)      CLEAR THE PDE FOR BAD PARM
         SPACE
*
*        HANDLE A VALID SUBSCRIPT. IF THIS IS THE THIRD ONE, GO TO
*        IGNORE ANY FURTHER ONES. IF NOT, GO PROCESS ANOTHER.
*
SYNOKSUB SR    R14,R14
         IC    R14,SUBSNO         GET NUMBER OF SUBSCRIPTS
         LA    R14,1(,R14)        INCREASE BY 1
         STC   R14,SUBSNO         STORE BACK
         CLI   SUBSNO,3           REACHED THE MAX?
         BE    SYNPEND            YES, EXIT
         L     R14,SUBSPDE        NO, BUMP THE PDE POINTER
         LA    R14,20(,R14)       BY 1 SUBSCRIPT
         ST    R14,SUBSPDE
         B     SYNPOS2            AND GO AGAIN
         SPACE
*
*        A SUBSCRIPT SEEMS TO BE MISSING. REJECT WHATEVER IS THERE, OR
*        PROMPT FOR ONE, IF NOTHING IS PRESENT.
*
SYNOSUBS CR    R8,R7              ANY TEXT LEFT?
         BH    SYNSBOUT           NO.
         CLI   0(R8),C')'         YES, HAVE WE A CLOSE PAREN?
         BNE   SYNITEM            NO, REJECT WHATEVER WE HAVE
SYNSBOUT CLI   SUBSNO,0           HAVE WE HAD ANY SUBSCRIPTS?
         BNE   SUBSOUT            YES, SUBSCRIPTS FINISHED
         L     R15,=A(CLUZRQSB)
         BALR  R14,R15            NO, CALL REQUIRE-SUBSCRIPT ROUTINE
         B     *+4(R15)           WAS IT CORRECTED?
         B     SYNPOS2            YES, TRY AGAIN
         B     SYNOKSUB           NO, JUST PUSH ON
         TITLE 'CLUTSPAR -- COBOL EXPRESSION HANDLING'
*
*        THIS CODE CONTROLS THE RECOGNITION AND VALIDATION OF SUBPARTS
*        OF A COBOL EXPRESSION. IT IS ENTERED UPON RETURN FROM THE
*        RECOGNIZER FOR A SUBPART, AS PROCESSING IS NORMAL UP TO THAT
*        POINT.
*
EXPRRET  B     EXPROK1            SUBPART RECOGNIZED
         B     EXPROMIT           SUBPART OMITTED
         B     EXPRINV            SUBPART INVALID
         B     SYNPOS2            GO PROCESS 1ST OPER SUBPART
         B     SYNRETRY           BACK UP & RETRY
         B     EXPRBAD            RECOGNIZER PROMPTING FAILED
         SPACE
*
*        SEE IF A SUBSCRIPT IS ALLOWED FOR THIS ITEM. IF SO, GO CHECK
*        FOR ONE.
*
EXPROK1  TM    COBFLAGS,COBSUBOK  COULD A SUBSCRIPT APPEAR?
         BZ    EXPRVEX            NO, GO VALIDATE
EXPRQSUB BAL   R14,SUBSIN         SEE IF SUBSCRIPT IS THERE
         SPACE
*
*        INTERFACE TO THE USER'S VALIDITY CHECK ROUTINE. IF THE
*        EXIT INDICATES THAT A SUBSCRIPT IS REQUIRED, IT MAY BE
*        SUFFICENT TO CALL THE SUBSCRIPT ROUTINE AGAIN, IF AN
*        AMBIGUOUS PARENTHESIS WAS FOUND NEAR THE VARIABLE.
*
EXPRVEX  BAL   R14,VEX            CALL VALIDATION ROUTINE
         MVI   RANGEF,0           MAKE SURE RANGE2 INDICATOR IS OFF
         B     *+4(R15)           WHAT HAPPENED?
         B     EXPROK             NO TROUBLE
         B     EXPRCRCT           NEW DATA OBTAINED, RE-RECOGNIZE
         B     EXPRMISS           PROMPT FAILED
         TM    COBFLAGS,COBSUB88  SUBSCRIPT NEEDED. ONE NEARBY?
         BNZ   EXPRQSUB           YES, GO GET IT
         LR    R2,R1
         MVC   ALIGN,=H'1'        NO, FORCE ONE TO BE ENTERED
         LA    R1,=C'('
         OI    INSFLAG,DUMMYSUB   SHOW STACKING DUMMY SUBSCRIPTS
         L     R15,=A(CLUZPUSH)   BY STACKING AN EMPTY LIST
         BALR  R14,R15
         LR    R1,R2
         OI    COBFLAGS,COBIMMSB  PROMISE IMMEDIATE SATISFACTION
         B     EXPRQSUB
         SPACE
*
*        IF WE ARE HANDLING A DEFAULT SUBPART, MAKE SURE NO INFO
*        IS LEFT OVER FROM THE DEFAULT.
*
EXPROK   TM    DEFTF,DEFTOPER     DEFAULTING SUBPARTS?
         BZ    EXPRNORM           NO.
         L     R15,=A(CLUZSKIP)   YES, SET UP TO SKIP BLANKS
         BALR  R14,R15
         LTR   R15,R15            ANYTHING LEFT?
         BNZ   EXPRPOPD           NO, EVERYTHING'S COOL
         BAL   R6,PARSRC12        YES, INDICATE PARM LIST ERROR
EXPRPOPD L     R15,=A(CLUZPOPS)
         BALR  R14,R15            REMOVE DEFAULT FROM STACK
         B     EXPRGOON           JOIN NON-DEFAULT CASE
         SPACE
*
*        KEEP TRACK OF THE FIRST AND LAST TOKENS FOUND IN THE
*        EXPRESSION IN CASE IT IS NEEDED FOR A LATER MESSAGE. THIS
*        INFORMATION IS STORED AS IF IT APPLIED TO THE SECOND HALF
*        OF A RANGE.
*
EXPRNORM CLI   OPERPART,8         HANDLING THE WHOLE EXPRESSION?
         BE    EXPRGOON           YES, SKIP THIS
         OC    COBHEAD2,COBHEAD2  HAD WE ANYTHING BEFORE?
         BNZ   EXPR2              YES.
         TM    COBFLGS1,COBOLVAR  NO, IS WHAT WE HAVE A VARIABLE?
         BZ    EXPR1NVR           NO.
         MVC   COBHEAD2(8),COBHEAD1    YES, SAVE INFO
         NI    COBFLGS2,255-COBHBYP    COPY HEAD BYPASS FLAG OVER
         MVI   ALIGN,COBHBYP
         NC    ALIGN(1),COBFLGS1
         OC    COBFLGS2,ALIGN
         TM    COBFLGS1,COBQVAR   IS THERE A TAIL TO THIS ONE?
         BZ    EXPRTSUB           NO.
EXPR2QVR MVC   COBTAIL2(8),COBTAIL1    YES, PRESERVE IT
EXPRTAIL OI    COBFLGS2,COBQVAR   INDICATE TAIL THERE
         NI    COBFLGS2,255-COBTBYP    COPY TAIL BYPASS FLAG OVER
         MVI   ALIGN,COBTBYP
         NC    ALIGN(1),COBFLGS1
         OC    COBFLGS2,ALIGN
EXPRTSUB NI    COBFLGS2,255-COBHASUB   COPY SUBSCRIPT EXISTENCE FLAG
         MVI   ALIGN,COBHASUB
         NC    ALIGN(1),COBFLGS1
         OC    COBFLGS2,ALIGN
         B     EXPRGOON
EXPR1NVR MVC   COBHEAD2,PREVPOS   GET START & END FOR NON-VAR
         ST    R8,COBHEAD2+4
         CLI   BYPASS,0           WAS IT HIDDEN?
         BE    EXPRGOON           NO.
         OI    COBFLGS2,COBHBYP   YES, SET HEAD BYPASS
         B     EXPRGOON
         SPACE
EXPR2    OI    COBFLGS2,COBQVAR   EXPR MUST NOW BE CONSIDERED          *
                                  QUALIFIED
         TM    COBFLGS1,COBOLVAR  IS THIS PART A VARIABLE?
         BZ    EXPR2NVR           NO.
         TM    COBFLGS1,COBQVAR   YES, QUALIFIED?
         BNZ   EXPR2QVR           YES, ITS TAIL IS OUR TAIL
         MVC   COBTAIL2(8),COBHEAD1    NO, ITS HEAD IS OUR TAIL
         B     EXPRTSUB           GO HANDLE SUBSCRIPTS
EXPR2NVR MVC   COBTAIL2,PREVPOS   START START & END OF NON-VAR
         ST    R8,COBTAIL2+4