         MACRO
&NAME    LIBLOCK &OLDSA=
.*       THIS MACRO GENERATES (POSSIBLY INEFFECTIVE) LANGUAGE-
.*       INDEPENDENT CODE TO PREVENT GOTO'S OUT OF THE CURRENT
.*       ROUTINE.
&NAME    IHBINNRA &OLDSA          OLD DSA ADDR IN R1
         L     R15,=V(LIEBLK)     BLOCK GOTO ROUTINE
         BALR  R14,R15            ERECT A BLOCKADE
         MEND
