         MACRO
&NAME    LIEXIT &RC=
.*       THIS MACRO GENERATES LANGUAGE-INDEPENDENT CODE TO RETURN FROM
.*       A ROUTINE.
         AIF   ('&RC' NE '').YRC
&NAME    L     R14,=V(LIEXIT)     ADDR. OF EXIT ROUTINE
         AGO   .JRC
.YRC     AIF   ('&NAME' EQ '').NONAME
&NAME    DS    0H
.NONAME  IHBINNRB SF=(E,&RC)      GET RC IN R15
         L     R14,=V(LIERETC)    ADDR. OF EXIT ROUTINE
.JRC     BR    R14                RETURN (THE HARD WAY)
         MEND
