         MACRO
&NAME    LIFO  &LV=
.*       THIS MACRO GENERATES LANGUAGE INDEPENDENT CODE TO GET A
.*       LIFO STORAGE AREA.
&NAME    IHBINNRA (1),&LV         LENGTH IN R0
         L     R15,=V(LIELIFO)    GET LIFO ROUTINE
         BALR  R14,R15            GO GRAB SOME STORAGE
         MEND
