         MACRO
&NAME    LIFREE &A=,&LV=
.*       THIS MACRO GENERATES LANGUAGE-INDEPENDENT CODE TO FREE A
.*       NON-LIFO STORAGE AREA.
&NAME    IHBINNRA &A,&LV          ADDR IN R1, LENGTH IN R0
         L     R15,=V(LIEFREE)    NON-LIFO FREE ROUTINE
         BALR  R14,R15            GIVE STORAGE BACK
         MEND
