         MACRO
&NAME    LIGET &LV=
.*       THIS MACRO GENERATES LANGUAGE-INDEPENDENT CODE TO GET A
.*       NON-LIFO STORAGE AREA.
&NAME    IHBINNRA (1),&LV         AREA LENGTH IN R0
         L     R15,=V(LIEGET)     NON-LIFO GET ROUTINE
         BALR  R14,R15            GO GET SOME STORAGE
         MEND
