         MACRO
&NAME    LIGOTO &LAB
.*       THIS MACRO GENERATES CODE TO GOTO A VARIABLE LOCATION IN A
.*       LANGUAGE INDEPENDENT ENVIRONMENT.
&NAME    LM    R0,R1,&LAB         LOAD TARGET & DSA ADDRESS
         L     R14,=V(LIEGOTO)
         BR    R14                CALL GOTO CODE
         MEND
