         MACRO
&NAME    LINSURE &LV=
         LCLC  &LVK
         LCLA  &KLV
&KLV     SETA  K'&LV
         AIF   ('&LV'(&KLV,1) EQ 'K').LVK SEE IF LENGTH IN K
&NAME    IHBINNRA (1),&LV
         AGO   .JOIN
.LVK     ANOP
&LVK     SETC  '&LV'(1,&KLV-1)
&NAME    LA    0,&LVK             GET NUMBER K TO ENSURE
         SLL   0,10               CONVERT TO BYTES
.JOIN    L     15,=V(LIENSUR)
         BALR  14,15              BUY INSURANCE
         MEND
