         MACRO
&NAME    LIRLSE
&NAME    L     15,=V(LIERLSE)
         BALR  14,15              ALLOW MEMORY RECLAMATION
         MEND
