         MACRO
&NAME    UPROMPT &BFF,&SIZE,&EDIT,&WAIT,&HOLD,&BRKI,&HELP=,&MF=I
&NAME    UPUT  &BFF,&SIZE,&EDIT,&WAIT,&HOLD,&BRKI,HELP=&HELP,          *
               MF=&MF,@ENTRY=UPROMPT                           RTS02A1
         MEND
