         MACRO
&NAME    WS    &TYPE,                   DSECT NAME AND BEGIN/END       *
               &LENGTH=WSLEN            WHAT TO CALL LENGTH OF DSECT
.**********************************************************************
.*       GLOBALS
.**********************************************************************
         GBLC  &WS$NAME
         GBLC  &WS$CAME
         AIF   ('&TYPE' EQ 'BEGIN').BEG
         AIF   ('&TYPE' EQ 'END').END
         MNOTE 16,'INVALID TYPE FOUND - EXPECTED BEGIN OR END'
         MEXIT
.BEG     ANOP
&WS$NAME SETC  '&NAME'
&WS$CAME SETC  '&SYSECT'
&WS$NAME DSECT ,
SAVEAREA DS    18F
         MEXIT
.END     ANOP
         DS    0D
WS$LEN   EQU   *-&WS$NAME
&LENGTH  EQU   (WS$LEN+2)/4
&WS$CAME CSECT ,
         MEND
