         TITLE '   C K S U M  '
************************************************************
*                                                          *
*        'CKSUM' TSO COMMAND (24-BIT)                      *
*                                                          *
************************************************************
         SPACE
*  COMPUTE AND DISPLAY A CHECKSUM OF THE CONTENTS OF A DATASET,
*  OR THE SEPARATE CHECKSUMS OF A LIST OF DATA SETS.
*  THE CHECKSUM IS THE SAME TYPE USED IN THE
*  Z/OS UNIX SYSTEM SERVICES 'CKSUM' COMMAND, AND IN THE
*  'CKSUM' COMMAND IN AIX, LINUX, AND PROBABLY OTHER SYSTEMS.
*  ALL OF THE CHECKSUM PROCESSING IS DONE IN THE SEPARATE
*  'CKSUMR' SUBROUTINE CALLED BY THIS COMMAND.
*
*  WRITTEN MAY 31 2020 USING SOURCE CODE FOR THE 'MD5SUM'
*  COMMAND IN FILE 900 OF THE CBT TAPE, WHICH IN TURN
*  USED SOURCE CODE FROM THE 'COUNT' COMMAND IN FILE 300.
*
*  ATTRIBUTES. RE-ENTRANT.
*
*  THIS TSO COMMAND READS THE SPECIFIED SEQUENTIAL DATA SETS
*  OR PDS MEMBERS AND DISPLAYS A CHECKSUM FOR EACH.
*
*        IF AN UNQUALIFIED DATA SET NAME IS ENTERED, THE
*        CATALOG MUST BE READ TWICE, ONCE TO APPEND A
*        TRAILING QUALIFIER IF NECESSARY, AND AGAIN DURING
*        ALLOCATION. THE USER CAN ELIMINATE THE FIRST BY USING
*        THE FULLY QUALIFIED NAME, PREFIX AND ALL, IN QUOTES,
*        OR BY ENTERING ALL BUT THE PREFIX, WITHOUT QUOTES,
*        PLUS THE KEYWORD 'Q'. THE LATTER IS MUCH SIMPLER
*        AND GIVES THE SAME PERFORMANCE IMPROVEMENT AS A
*        FULLY QUALIFIED NAME.
*
*        THE 'FILE' KEYWORD IS USEFUL FOR READING TEMPORARY
*        DATA SETS.  IT TELLS THE COMMAND TO TREAT THE FIRST
*        OPERAND AS A FILENAME (DDNAME) INSTEAD OF A DSNAME.
*        WHATEVER DATA SET IS CURRENTLY ALLOCATED TO THE
*        FILENAME WILL BE READ (AND QUICKLY, BECAUSE
*        THE COMMAND DOESNT HAVE TO ALLOCATE ANYTHING).
*
*        NOTE - IF A NON-EXISTENT MEMBER OF A PDS IS SPECIFIED,
*        THE RESULTING 013-18 ABEND IS TRAPPED BY A DCB ABEND
*        EXIT, BUT A MESSAGE IS ISSUED BY OPEN ANYWAY. THIS
*        METHOD IS USED BECAUSE THE ADDITIONAL OVERHEAD
*        OF ALLOCATING THE PDS AND DOING A 'BLDL' WOULD
*        DEGRADE THE PERFORMANCE UNACCEPTABLY.
         MACRO                                                   JDM1
&NAME    OBTAIN &LIST,&DUMMY=                                    JDM1
         AIF   (T'&LIST EQ 'O').E1                               JDM1
&NAME    IHBINNRA &LIST                 LOAD REG 1               JDM1
         SVC   27                       ISSUE OBTAIN SVC         JDM1
         MEXIT                                                   JDM1
.E1      IHBERMAC 34                    LIST ADDR MISSING        JDM1
         MEND                                                    JDM1
*         INTERCEPT 'LINK' MACRO IMBEDDED IN STACK MACRO
*         TO MAKE SF=(E,LINKAREA) THE DEFAULT.
         MACRO
&NAME    LINK  &EP=,&SF=(E,LINKAREA)
&NAME    LA    15,&SF(2)
         LA    0,*+8
         B     *+12
         DC    CL8'&EP'
         ST    0,0(0,15)
         SVC   6             ISSUE LINK SVC
         MEND
         SPACE
         GBLB  &MVS
&MVS     SETB  1                   1 - MVS   0 - SVS,MVT
         SPACE
CKSUM    START
         USING *,R12,R11
         B     @PROLOG-*(,R15)
         DC    AL1(5),CL5'CKSUM'
         DC    CL16' &SYSDATE &SYSTIME '
@SIZE    DC    0F'0',AL1(1),AL3(@DATAL)
@PROLOG  STM   14,12,12(13)
         LR    R12,R15             BASE
         LA    R15,1
         LA    R11,4095(R15,R12)   BASE
         LR    R2,R1
         USING CPPL,R2
         L     R0,@SIZE
         GETMAIN R,LV=(0)
         LR    R9,R1
         USING @DATA,R9
         ST    13,4(,1)            CHAIN SAVEAREA
         ST    1,8(,13)            CHAIN SAVEAREA
         LR    13,1                NEW SAVEAREA
         SPACE 1
         MVI   STATUS,0
         XC    LINKAREA(8),LINKAREA
         SLR   R15,R15
         STH   R15,RETCODE         SET RETCODE = 0
         SPACE
************************************************************
*                                                          *
*        SET UP IOPL FOR PUTLINE                           *
*                                                          *
************************************************************
         SPACE
         LA    R15,MYIOPL
         USING IOPL,R15
         MVC   IOPLUPT(4),CPPLUPT
         MVC   IOPLECT(4),CPPLECT
         LA    R0,MYECB
         ST    R0,IOPLECB
         XC    MYECB,MYECB
         LA    R0,MYPTPB
         ST    R0,IOPLIOPB
         DROP  R15                 IOPL
         SPACE
         AIF   (NOT &MVS).SKIP1
         L     R15,16              LOAD CVT POINTER
         TM    444(R15),X'80'      IS PUTLINE LOADED? (VS2)
         BNO   PUTLOAD             NO - BRANCH TO LOAD
         L     R15,444(,R15)       YES - USE CVTPUTL
         B     PUTLOADX            BRANCH AROUND LOAD
.SKIP1   ANOP
PUTLOAD  LA    R0,=CL8'IKJPUTL '
         LOAD  EPLOC=(0)
         LR    R15,R0              GET ENTRY ADDRESS
         LA    R15,0(,R15)         CLEAR HI BYTE FOR DELETE ROUTINE
PUTLOADX ST    R15,MYPUTLEP        SAVE PUTLINE ENTRY ADDRESS
         SPACE
************************************************************
*                                                          *
*        SET UP PPL FOR PARSE                              *
*                                                          *
************************************************************
         SPACE
         LA    R15,MYPPL
         USING PPL,R15
         MVC   PPLUPT(4),CPPLUPT
         MVC   PPLECT(4),CPPLECT
         LA    R0,MYECB
         ST    R0,PPLECB
         XC    MYECB,MYECB
         L     R0,=A(CKSUMPCL)
*        LA    R0,PCLADDR
         ST    R0,PPLPCL
         LA    R0,MYANS
         ST    R0,PPLANS
         XC    MYANS(4),MYANS
         MVC   PPLCBUF(4),CPPLCBUF
         ST    R9,PPLUWA
         DROP  R15                 PPL
         SPACE 1
************************************************************
*                                                          *
*        CALL THE PARSE SERVICE ROUTINE                    *
*                                                          *
************************************************************
         SPACE 1
         LR    R1,R15              POINT TO PPL
         AIF   (NOT &MVS).SKIP2
         L     R15,16              CVTPTR
         TM    524(R15),X'80'      IF HI ORDER BIT NOT ON
         BNO   PARSELNK               THEN DO LINK, NOT CALL
         L     R15,524(,R15)       CVTPARS
         BALR  R14,R15             CALL IKJPARS
         B     PARSEEXT            SKIP AROUND LINK
PARSELNK EQU   *
.SKIP2   ANOP
         LINK  EP=IKJPARS,SF=(E,LINKAREA)
PARSEEXT EQU   *
         SPACE 1
         LTR   R15,R15
         BZ    PARSEOK
         LA    R1,MSG01
         LA    R0,L'MSG01
         BAL   R14,PUTMSG
         LA    R15,12
         B     EXIT
PARSEOK  EQU   *
         SPACE
         L     R3,MYANS
         USING IKJPARMD,R3
         SPACE
************************************************************
*                                                          *
*        GET THE FIRST OR NEXT DSN IN THE LIST             *
*                                                          *
************************************************************
         SPACE
         LA    R6,DSN
         B     FIRSTDSN
NEXTDSN  CLI   24(R6),X'FF'        END OF DSN LIST?
         BE    DONE
         L     R6,24(,R6)          POINT TO NEXT ENTRY
FIRSTDSN EQU   *
         SPACE
************************************************************
*                                                          *
*        QUALIFY THE DSNAME IF NECESSARY                   *
*                                                          *
************************************************************
         SPACE
         TM    6(R6),X'80'         IS DATASET NAME SPECIFIED?
         BO    OKDSN               YES - BRANCH
         LA    R1,MSG05            NO - JUST MEMBER NAME
         LA    R0,L'MSG05
         BAL   R14,PUTMSG
         B     NEXTD12
OKDSN    EQU   *
         LA    R15,DSNAME+2
         MVI   0(R15),C' '         BLANK THE DSNAME AREA
         MVC   1(43,R15),0(R15)
         SLR   R1,R1
         STH   R1,DSNAME           ZERO DSNAME LENGTH
         TM    6(R6),X'40'         IS DSN QUOTED?
         BO    NOPREF              YES, SKIP PREFIXING
         CLI   FILEKW+1,1          DSN TO BE TREATED AS DDNAME
         BE    NOPREF              YES, SKIP PREFIXING
         AIF   (NOT &MVS).SKIPP    PREFIX WITH PREFIX
         L     R14,CPPLUPT         POINT TO UPT
         USING UPT,R14
         IC    R1,UPTPREFL         GET LENGTH OF PREFIX
         LTR   R1,R1               IS IT ZERO
         BZ    NOPREF              YES, SKIP PREFIXING
         B     *+10
         MVC   0(0,R15),UPTPREFX
         DROP  R14                 UPT
.SKIPP   AIF   (&MVS).SKIPU        PREFIX WITH USERID
         L     R14,CPPLPSCB        POINT TO PSCB
         USING PSCB,R14
         IC    R1,PSCBUSRL         GET LENGTH OF USERID
         LTR   R1,R1               IS IT ZERO
         BZ    NOPREF              YES, SKIP PREFIXING
         B     *+10
         MVC   0(0,R15),PSCBUSER
         DROP  R14                 PSCB
.SKIPU   ANOP
         EX    R1,*-6              MOVE USERID TO DSNAME AREA
         LA    R15,0(R1,R15)       POINT PAST USERID
         MVI   0(R15),C'.'         APPEND PERIOD
         LA    R15,1(,R15)         POINT PAST PERIOD
         LA    R1,1(,R1)           ADD 1 TO LENGTH
         STH   R1,DSNAME           STORE LENGTH OF USERID PLUS 1
NOPREF   EQU   *
         LH    R1,4(,R6)           GET LENGTH
         LR    R0,R1
         AH    R0,DSNAME           ADD LENGTH OF PREFIX OR ZERO
         STH   R0,DSNAME           SET COMBINED LENGTH
         L     R14,0(,R6)          POINT TO DSN VALUE
         BCTR  R1,0                LENGTH MINUS 1 FOR EX
         B     *+10                BRANCH AROUND EXECUTED MVC
         MVC   0(0,R15),0(R14)     (EXECUTED)
         EX    R1,*-6              MOVE DSN TO DSNAME (AFTER PREFIX)
         SPACE
************************************************************
*                                                          *
*        IF 'FILE' KEYWORD IS SPECIFIED,                   *
*        GET DSNAME FROM JFCB USING FILE NAME.             *
*                                                          *
************************************************************
         SPACE
         CLI   FILEKW+1,1          'FILE' SPECIFIED?
         BNE   NOFILE              NO, BRANCH
         CLI   DSNAME+1,8          IS LENGTH 8 OR LESS
         BH    FILERR1             NO, BRANCH
         DEVTYPE DSNAME+2,DEVDATA  GET DEVICE TYPE
         LTR   R15,R15             WAS FILENAME VALID
         BNZ   FILERR2             NO, BRANCH
         TM    DEVDATA+2,X'20'     DIRECT ACCESS
         BZ    FILERR3             NO, BRANCH
         LA    R4,DYNDCBW
         MVC   0(DYNDCBL,R4),DYNDCB
         XC    MEMLEN,MEMLEN
         LA    R0,JFCB
         LA    R1,DYNEXLST
         ST    R0,0(,R1)
         MVI   0(R1),X'87'
         ST    R1,36(,R4)          DCBEXLST
         MVC   40(8,R4),DSNAME+2   DCBDDNAM
         MVC   DDSAVE,DSNAME+2
         MVI   OPEND,X'80'
         RDJFCB ((R4)),MF=(E,OPEND)
         MVC   DSNAME+2(44),JFCB
         LA    R1,DSNAME+45        LAST CHAR OF DSNAME
         LA    R0,44               INITIAL LENGTH
FILEA    CLI   0(R1),C' '          IS THIS LAST NONBLANK
         BNE   FILEB               YES, BRANCH
         BCTR  R1,0                BACK UP 1 CHARACTER
         BCT   R0,FILEA            DECREMENT LENGTH AND BRANCH
FILEB    STH   R0,DSNAME           STORE LENGTH OF DSNAME
*        MVC   VOLUME(6),JFCB+118  GET VOLUME FROM JFCB
         MVC   MEMNAME,JFCB+44     JFCBELNM IN IEFJFCBN
         LA    R1,MEMNAME+7        LAST CHAR OF MEMBER NAME
         LA    R0,8
MEMA     CLI   0(R1),C' '
         BNE   MEMB
         BCTR  R1,0
         BCT   R0,MEMA
MEMB     STH   R0,MEMLEN
         B     FILESPEC
FILERR1  LA    R0,MSG14A
         B     FILERR
FILERR2  LA    R0,MSG14B
         B     FILERR
FILERR3  LA    R0,MSG14C
FILERR   MVC   MSGWK(L'MSG14),MSG14
         LA    R15,MSGWK+L'MSG14
         LA    R14,DSNAME
         LH    R1,0(,R14)
         BCTR  R1,0
         B     *+10
         MVC   MSGWK+L'MSG14(0),2(R14)
         EX    R1,*-6
         LA    R15,1(R1,R15)
         LR    R14,R0 POINT TO MSG14A, B, OR C
         MVC   0(L'MSG14A,R15),0(R14)
         LA    R0,L'MSG14+L'MSG14A+1(,R1)
         LA    R1,MSGWK
         BAL   R14,PUTMSG
         B     QUITD12
NOFILE   EQU   *
         TM    6(R6),X'40'         IS IT QUOTED?
         BO    DEFX                YES - SKIP DEFAULT SERVICE
         CLI   QUICKW+1,1          QUICK SPECIFIED
         BE    DEFX                YES, USER ENTERED ALL BUT PREFIX
         SPACE
         LA    R15,MYIOPL
         USING IOPL,R15
         LA    R14,MYDFPB
         ST    R14,IOPLIOPB
         USING DFPB,R14
         XC    0(20,R14),0(R14)
         LA    R0,DSNAME
         ST    R0,DFPBDSN
         OI    DFPBCODE,X'04'      SEARCH CAT AND PROMPT IF MULTI
         MVC   DFPBPSCB,CPPLPSCB
*        MVI   DFPBCNTL,X'20'      PREFIX THE DSNAME
         DROP  R14                 DFPB
         SPACE
         LA    R1,MYIOPL
         SPACE
         LR    R1,R15              POINT TO IOPL
         AIF   (NOT &MVS).SKIP4
         L     R15,16              CVTPTR
         TM    736(R15),X'80'      IF HI ORDER BIT NOT ON
         BNO   EHDEFLNK               THEN DO LINK, NOT CALL
         L     R15,736(,R15)       CVTEHDEF
         BALR  R14,R15             CALL IKJEHDEF
         B     EHDEFEXT            SKIP AROUND LINK
EHDEFLNK EQU   *
.SKIP4   ANOP
         LINK  EP=IKJEHDEF,SF=(E,LINKAREA)
EHDEFEXT EQU   *
         SPACE
         B     DEFCODE(R15)
DEFCODE  B     DEF00               SUCCESS
         B     NEXTD12              MSG ALREADY ISSUED
         B     DEF08               INVALID NAME GT 44
         B     NEXTD12              MSG ALREADY ISUED
         B     DEF16               NOT IN CATALOG
         B     DEF20               NOT IN CATALOG
         B     DEF24               IMPOSSIBLE
         B     DEF28               COMMAND SYSTEM ERROR
         B     DEF32               IMPOSSIBLE
         B     DEF36               ?
DEF08    EQU   *
DEF16    EQU   *
         B     DEF24
DEF20    EQU   *
LOCERR   EQU   *
         MVC   MSGWK(L'MSG02),MSG02
         LA    R15,MSGWK+L'MSG02
         LA    R14,DSNAME
         LH    R1,0(,R14)
         BCTR  R1,0
         B     *+10
         MVC   MSGWK+L'MSG02(0),2(R14)
         EX    R1,*-6
         LA    R15,1(R1,R15)
         MVC   0(L'MSG02A,R15),MSG02A
         LA    R0,L'MSG02+L'MSG02A+1(,R1)
         LA    R1,MSGWK
         BAL   R14,PUTMSG
         B     NEXTD12
DEF24    EQU   *
DEF28    EQU   *
DEF32    EQU   *
DEF36    EQU   *
         LA    R1,MSG03
         LA    R0,L'MSG03
         BAL   R14,PUTMSG
NEXTD12  MVI   RETCODE+1,12
         B     NEXTDSN
         SPACE
DEF00    EQU   *
DEFX     EQU   *
         SPACE
************************************************************
*                                                          *
*        ALLOCATE THE DATASET                              *
*                                                          *
************************************************************
         SPACE
         LA    R1,MYDAPL
         USING DAPL,R1
         MVC   DAPLUPT(4),CPPLUPT
         MVC   DAPLECT(4),CPPLECT
         LA    R0,MYECB
         ST    R0,DAPLECB
         MVC   DAPLPSCB(4),CPPLPSCB
         LA    R15,MYDAPB
         ST    R15,DAPLDAPB
         DROP  R1                  DAPL
         USING DAPB08,R15
         XC    0(84,R15),0(R15)
         MVI   DA08CD+1,X'08'
         LA    R0,DSNAME
         ST    R0,DA08PDSN
         MVC   DA08DDN(8),=CL8' '
         MVC   DA08UNIT,=CL8' '
         MVC   DA08SER,=CL8' '
         MVC   DA08MNM,=CL8' '
         MVC   DA08PSWD,=CL8' '
         MVI   DA08DSP1,DA08SHR
         MVI   DA08DPS2,DA08KEEP
         MVI   DA08DPS3,DA08KEP
         TM    14(R6),X'80'        MEMBER SPECIFIED?
         BZ    MEMBX               NO - BRANCH
         LH    R1,12(,R6)          GET LENGTH OF MEMBER
         STH   R1,MEMLEN
         BCTR  R1,0                MINUS 1 FOR EX
         L     R14,8(,R6)          GET ADDRESS OF MEMBER NAME
         B     *+10
         MVC   DA08MNM(0),0(R14)   MOVE MEMBER NAME
         EX    R1,*-6
         MVC   MEMNAME,DA08MNM
MEMBX    EQU   *
         TM    22(R6),X'80'        PASSWORD SPECIFIED?
         BZ    PASSX               NO - BRANCH
         LH    R1,20(,R6)          GET LENGTH OF PSWD
         BCTR  R1,0                MINUS 1 FOR EX
         L     R14,16(,R6)         GET ADDRESS OF PSWD
         B     *+10
         MVC   DA08PSWD(0),0(R14)  MOVE PSWD
         EX    R1,*-6
PASSX    EQU   *
         LA    R1,MYDAPL
         SPACE
         BAL   R14,CALLDAIR
         LTR   R15,R15
         BZ    OKDAIR
         BAL   R14,DAIRFAIL
         B     NEXTD12
OKDAIR   EQU   *
         OI    STATUS,X'40'        TELL CLEANUP TO FREE IT
         LA    R15,MYDAPB
         MVC   DDSAVE,DA08DDN
         TM    DA08DSO,X'40'       IS DSORG SEQUENTIAL?
         BO    OKDSORG             YES - BRANCH
         TM    DA08DSO,X'02'       IS DSORG PARTITIONED?
         BO    OKDSORGP            YES, BRANCH
*
*              DSORG IS NEITHER PS NOR PO
*              ISAM=X'80' DA=X'20' VSAM=X'00' NONE=X'00'
*
ERRDSORG LA    R1,MSG06
         LA    R0,L'MSG06
         BAL   R14,PUTMSG
         B     QUITD12
OKDSORGP EQU   *
         CLC   DA08MNM,=CL8' '     WAS MEMBER SPECIFIED?
         BNE   OKDSORG             YES - BRANCH
         LA    R1,MSG07
         LA    R0,L'MSG07
         BAL   R14,PUTMSG
         B     NEXTD12
OKDSORG  EQU   *
         DROP  R15                 DAPB08
         SPACE
************************************************************
*                                                          *
*        CHECK FORMAT-1 DSCB FOR EMPTY DATA SET            *
*                                                          *
************************************************************
         SPACE
         L     R1,16               CVTPTR
         L     R1,0(,R1)           TCB WORDS
         L     R1,4(,R1)           CURRENT TCB
         L     R1,12(,R1)          TIOT
         LA    R1,24(,R1)          TOIENTRY
DDLOOP   CLI   0(R1),0             END OF TIOT
         BE    QUITDSN             YES, BRANCH (NEVER HAPPENS)
         CLC   4(8,R1),DDSAVE      DOES DDNAME MATCH
         BE    DDFOUND
         SLR   R15,R15
         IC    R15,0(,R1)
         LA    R1,0(R15,R1)
         B     DDLOOP
DDFOUND  L     R15,16(,R1)         TIOEFSRT-1
         TM    18(R15),X'20'       DIRECT ACCESS DEVICE?
         BZ    OBTX                NO, BYPASS OBTAIN
         MVC   VOLSER,28(R15)      UCBVOLI
OBTDSCB  LA    R1,OBTAINW
         MVC   0(OBTAINL,R1),OBTAIN
         LA    R0,DSNAME+2         DSN FOR OBTAIN
         ST    R0,4(,R1)
         LA    R0,VOLSER           VOLUME FOR OBTAIN
         ST    R0,8(,R1)
         LA    R0,MYDSCB           ANSWER AREA FOR OBTAIN
         ST    R0,12(,R1)
         OBTAIN (1)
         LTR   R15,R15             WAS OBTAIN SUCCESSFUL
         BZ    OKDSCB              YES, BRANCH
         SPACE
*               OBTAIN HAS FAILED. HOW CAN THAT HAPPEN WHEN
*               DYNAMIC ALLOCATION WAS SUCCESSFUL? ONE WAY IT
*               CAN HAPPEN IS IF THE DSNAME IS AN ALIAS ENTRY
*               IN A VSAM CATALOG.  IF IT IS, A 'LOCATE' WILL
*               PUT THE TRUE NAME IN THE DSNAME FIELD, SO NOW
*               WE ISSUE A LOCATE, AND TRY THE OBTAIN AGAIN.
         SPACE
         TM    STATUS,X'08'        HAS LOCATE BEEN TRIED ALREADY?
         BZ    ALIAS               NO, GO TRY IT
ERROBT   LA    R1,MSG09            UNABLE TO OBTAIN DSCB
         LA    R0,L'MSG09
         BAL   R14,PUTMSG
         B     QUITD12
ALIAS    OI    STATUS,X'08'        TRIP THE SWITCH
         LA    R1,LOCATEW
         MVC   0(LOCATEL,R1),LOCATE
         LA    R0,DSNAME+2         DSNAME FOR LOCATE
         ST    R0,4(,R1)
         LA    R0,LOCBUF           ANSWER AREA FOR LOCATE
         ST    R0,12(,R1)
         LOCATE (1)
         LTR   15,15               WAS LOCATE SUCCESSFUL?
         BZ    OBTDSCB             YES, GO OBTAIN AGAIN
         B     ERROBT              NO, ISSUE MESSAGE
         SPACE
OKDSCB   NI    STATUS,255-X'08'    TURN OFF LOCATE SWITCH
         TM    MYDSCB-44+X'52',X'42' DSORG = PS OR PO
         BZ    ERRDSORG
*        TM    MYDSCB-44+X'54',X'C0' RECFM = U
*        BO    ERRRECFM
*        CLC   MYDSCB-44+X'62'(3),=X'000000' CHECK DS1LSTAR
*        BE    DYNEOD              BRANCH IF EMPTY DATA SET
OBTX     EQU   *
FILESPEC EQU   *
         SPACE
************************************************************
*                                                          *
*        SET UP THE DCB                                    *
*                                                          *
************************************************************
         SPACE
         MVC   DYNDCBW(DYNDCBL),DYNDCB
         LA    R4,DYNDCBW
         USING IHADCB,R4
         MVC   DCBDDNAM(8),DDSAVE
         SPACE
         LA    R15,DYNEOD
         IC    R0,DCBEODAD-1
         ST    R15,DCBEODAD-1
         STC   R0,DCBEODAD-1
         SPACE
         LA    R15,DYNSYNAD
         IC    R0,DCBSYNAD-1
         ST    R15,DCBSYNAD-1
         STC   R0,DCBSYNAD-1
         SPACE
         LA    R15,DYNEXLST
         IC    R0,DCBEXLSA-1
         ST    R15,DCBEXLSA-1
         STC   R0,DCBEXLSA-1
         LA    R1,DYNDCBEX
         ST    R1,0(,R15)
         MVI   0(R15),X'05'
         LA    R1,DYNABEND
         ST    R1,4(,R15)
         MVI   4(R15),128+X'11'    OPEN ABEND EXIT (MVS)
         SPACE
         OI    STATUS,X'80'        TELL CLEANUP TO CLOSE DCB
         MVI   OPEND,X'80'
         SPACE
         OPEN  ((R4),INPUT),MF=(E,OPEND)
         SPACE
         TM    DCBOFLGS,X'10'
         BO    OKOPEN
         LA    R1,MSG08
         LA    R0,L'MSG08
         TM    STATUS,X'10'        MEMBER NOT FOUND?
         BO    DYNOPENM            YES, BRANCH
         LA    R1,MSG04
         LA    R0,L'MSG04
DYNOPENM BAL   R14,PUTMSG
         B     QUITD12
         SPACE
DYNDCBEX BR    R14
         SPACE
DYNABEND EQU   *
         L     R8,0(,R1)           GET COMPLETION CODE
         N     R8,=A(X'FFF0FF00')
         CL    R8,=A(X'01301800')  IS IT AN 013-18 ABEND
         BE    *+10                YES, BRANCH
         MVI   4(R1),0             ABNORMALLY TERMINATE
         BR    R14
         OI    STATUS,X'10'        INDICATE MEMBER NOT FOUND
         MVI   3(R1),4             IGNORE THE ABEND
         BR    R14
         SPACE
OKOPEN   EQU   *
         BAL   R14,CKXINIT         SET UP FOR CKSUMR
         SPACE
READLOOP EQU   *
         MVI   SYNADSW,0           SET SYNAD SWITCH OFF
         SPACE
         GET   (R4)
         SPACE
         CLI   SYNADSW,0           WAS SYNAD EXIT TAKEN?
         BE    OKGET               NO - BRANCH
         LA    R1,SYNADMSG
         LA    R0,78
         BAL   R14,PUTMSG
         B     QUITD12
OKGET    EQU   *
         BAL   R14,CKXREC
         B     READLOOP
         SPACE
CKXINIT  LA    R1,CKXARGS
         LA    R15,CKXLEN
         ST    R15,4(,R1)          ARG 2 IS WORD CONTAINING LENGTH
         LA    R15,CKXCTX
         ST    R15,8(,R1)          ARG 3 IS CONTEXT 3 WORDS
         XC    0(12,R15),0(R15)    CLEAR THE CONTEXT
         LA    R15,CKXRES
         ST    R15,12(,R1)         ARG 4 IS RESULT
         LA    R15,CKXWRK
         ST    R15,16(,R1)         ARG 5 IS WORKSPACE 30 WORDS
         BR    R14
         SPACE
CKXREC   ST    R14,CKXSAVE
         LH    R0,DCBLRECL         GET RECORD LENGTH IF RECFM U OR FB
         TM    DCBRECFM,X'C0'      IF RECFM U
         BO    CKXRECX               BRANCH
         TM    DCBRECFM,X'40'      IF RECFM V
         BO    CKXRECV               BRANCH
         TM    DCBRECFM,X'10'      IF RECFM FB
         BO    CKXRECX               BRANCH
         LH    R0,DCBBLKSI         GET RECORD LENGTH IF RECFM F
         B     CKXRECX               BRANCH
CKXRECV  CLI   RDWKW+1,1           IF RDW WAS SPECIFIED
         BE    CKXRECX               INCLUDE RDW
         LH    R0,0(,R1)           GET RECORD LENGTH +4 FROM RDW
         SH    R0,=H'4'            SUBTRACT 4 TO EXCLUDE RDW
         LA    R1,4(,R1)           GET RECORD ADDRESS AFTER RDW
CKXRECX  ST    R0,CKXLEN           STORE RECORD LENGTH
         LR    R15,R1              RECORD ADDRESS TO R15
         LA    R1,CKXARGS          SET R1 FOR CALL
         ST    R15,0(,R1)          STORE RECORD ADDRESS AS FIRST ARG
         L     R15,=V(CKSUMR)      SET R15 FOR CALL
         BALR  R14,R15             CALL CKSUMR(RECORD,LEN,CTX,HEX,WORK)
         L     R14,CKXSAVE
         BR    R14
         SPACE
CKXLAST  ST    R14,CKXSAVE
         SR    R0,R0               STORE RECORD ADDRESS
         ST    R0,CKXLEN           STORE RECORD LENGTH
         LA    R1,CKXARGS
         L     R15,=V(CKSUMR)
         BALR  R14,R15             CALL CKSUMR(RECORD,LEN,CTX,HEX,WORK)
         L     R14,CKXSAVE
         BR    R14
         SPACE
DYNEOD   EQU   *
         BAL   R14,CKXLAST
         LA    R1,CKXRES+12        POINT TO 12-BYTE RESULT DIGITS
         LA    R15,MSGWK
         LA    R0,12
SLOOP1   CLI   0(R1),C' '          IF LEADING BLANK
         BE    SNEXT1               IGNORE IT
         MVC   0(1,R15),0(R1)      ELSE COPY DIGIT TO MSGWK
         LA    R15,1(,R15)          POINT TO NEXT DEST BYTE
SNEXT1   LA    R1,1(,R1)           POINT TO NEXT SRC BYTE
         BCT   R0,SLOOP1           LOOP UNTIL ALL 12 DONE
         MVI   0(R15),C' '         SPACE BETWEEN
         LA    R15,1(,R15)         POINT TO NEXT DEST BYTE
*                                  R1 POINTS TO 16-BYTE COUNT DIGITS
         LA    R0,16               NUMBER OF CHARACTERS
SLOOP2   CLI   0(R1),C' '          IF LEADING BLANK
         BE    SNEXT2               IGNORE IT
         MVC   0(1,R15),0(R1)      ELSE COPY DIGIT TO MSGWK
         LA    R15,1(,R15)          POINT TO NEXT DEST BYTE
SNEXT2   LA    R1,1(,R1)           POINT TO NEXT SRC BYTE
         BCT   R0,SLOOP2           LOOP UNTIL ALL 16 DONE
         MVI   0(R15),C' '         SPACE BETWEEN
         LA    R15,1(,R15)         POINT TO NEXT DEST BYTE
         LA    R14,DSNAME
         LH    R1,0(,R14)
         BCTR  R1,0
         B     *+10
         MVC   0(0,R15),2(R14)     COPY DSNAME
         EX    R1,*-6              COPY DSNAME
         LA    R15,1(R1,R15)       POINT PAST LAST BYTE MOVED
*        TM    14(R6),X'80'        MEMBER SPECIFIED?
         CLI   MEMLEN+1,0          MEMBER ALLOCATED?
         BZ    MEMAX               NO - BRANCH
         MVI   0(R15),C'('
         LA    R15,1(,R15)
*        LH    R1,12(,R6)          GET LENGTH OF MEMBER
         LH    R1,MEMLEN           GET LENGTH OF MEMBER
         BCTR  R1,0                MINUS 1 FOR EX
*        L     R14,8(,R6)          GET ADDRESS OF MEMBER NAME
         LA    R14,MEMNAME
         B     *+10
         MVC   0(0,R15),0(R14)     MOVE MEMBER NAME
         EX    R1,*-6
         LA    R15,1(R1,R15)       POINT PAST LAST BYTE
         MVI   0(R15),C')'
         LA    R15,1(,R15)
MEMAX    EQU   *
         LA    R1,MSGWK
         LR    R0,R15              POINT PAST LAST BYTE
         SR    R0,R1               COMPUTE MESSAGE LENGTH
         CLI   LOWKW+1,1           IF 'LOWER' SPECIFIED
         BNE   LOWX
         LR    R14,R0
         BCTR  R14,0                  GET LENGTH MINUS 1
         B     *+10
         TR    MSGWK(0),LOWTABLE      TRANSLATE TO LOWER CASE
         EX    R14,*-6
LOWX     EQU   *
         LA    R1,MSGWK
         BAL   R14,PUTLINE
         B     QUITDSN
         SPACE
QUITD12  LA    R15,12
         SPACE
QUITDSN  TM    STATUS,X'80'
         BZ    NOCLOSE
         TM    DCBOFLGS,X'10'      IS IT OPEN?
         BZ    NOCLOSE             NO, BRANCH
         MVI   CLOSED,X'80'
         CLOSE ((R4)),MF=(E,CLOSED)
         NI    STATUS,255-X'80'    CLOSED
         DROP  R4                  IHADCB
NOCLOSE  EQU   *
         TM    STATUS,X'40'        FREE REQUIRED?
         BZ    NOFREE
         LA    R1,MYDAPL
         LA    R15,MYDAPB
         USING DAPB18,R15
         XC    0(40,R15),0(R15)
         MVI   DA18CD+1,X'18'
         MVC   DA18DDN,DDSAVE
         MVC   DA18MNM(8),=CL8' '
         MVC   DA18SCLS(2),=CL8' '
         BAL   R14,CALLDAIR        UNALLOCATE
         NI    STATUS,255-X'40'    UNALLOCATED
         DROP  R15                 DAPB18
NOFREE   EQU   *
         B     NEXTDSN
         SPACE
DONE     TM    MYPUTLEP,X'80'     WAS PUTLINE LOADED?
         BO    NODELETE           NO - USED CVTPUTL - BRANCH
         LA    R0,=CL8'IKJPUTL '
         DELETE EPLOC=(0)
NODELETE EQU   *
         SPACE
         IKJRLSA MYANS
         SPACE
         CLI   RETCODE+1,0         IS RETCODE ZERO?
         BZ    STACKDX             YES, BRANCH
         MVC   MYSTPB(STACKDL),STACKD
         SPACE
         STACK DELETE=ALL,PARM=MYSTPB,MF=(E,MYIOPL)
         SPACE
         TCLEARQ
STACKDX  EQU   *
         SPACE
         LH    R15,RETCODE
         B     EXIT
         SPACE
************************************************************
*                                                          *
*         CALL IKJDAIR SERVICE ROUTINE                     *
*                                                          *
************************************************************
          SPACE
CALLDAIR ST    R14,DAIRREGS
         AIF   (NOT &MVS).SKIP6
         L     R15,16
         TM    732(R15),X'80'     CVTDAIR
         BNO   DAIRLINK
         L     R15,732(,R15)
         BALR  R14,R15
         B     DAIRFINI
DAIRLINK EQU   *
.SKIP6   ANOP