         MACRO
&NAME    #EPILOG
         COPY     #GLOBAL
         GBLC     &$SPBR                    Base register
         GBLC     &$SPFR                    Frame length
         GBLC     &$SPSA                    Save registers
         GBLB     &$SPPR                    Profiling switch
         GBLB     &$SPMA                    Main switch
.*
&NAME    DS       0H                        Gen name
         AIF      ('&$SPFR' EQ 'NO').NFRAME1
         AIF      (NOT &$SPPR).NPROF
         LR       R2,R15                    Save return value
         #CALL    $$PROFE                   Call profile epilog
         LR       R15,R2                    Restore return value
.NPROF   ANOP
         AIF      (NOT &$SPMA).NMAIN
         LR       R2,R15                    Save return value
         #CALL    $$LIBT                    Call library termination
         LR       R15,R2                    Restore return value
.NMAIN   ANOP
         L        R13,4(R13)                Get previous save area
         L        R2,=A(&L.$1)              Get stk data ptr
         LM       R2,R3,0(R2)
         L        R2,0(R2)
         L        R4,8(R2)
         SLR      R4,R3
         ST       R4,8(R2)
         CL       R4,=F'12'
         BE       &L.$9
.NFRAME1 ANOP
         RETURN   &$SPSA,RC=(15)            Return to caller
         AIF      ('&$SPFR' EQ 'NO').NFRAME2
&L.$9    SAVE     (15)
         L        R12,=V($$PUTSTK)
         BR       R12
.NFRAME2 ANOP
         LTORG                              Dump literals here
*        DROP     &$SPBR                    Drop base
         #CALL    MF=L                      Dump call literals here
         AIF      ('&$SPFR' EQ 'NO').NFRAME3
         AIF      ('&$SPFR' EQ '0').NFRAME3
         #FRAME   START
         #FRAME   END
.NFRAME3 ANOP
.MEND    ANOP
         MEND
