         MACRO
&NAME    #FRAME   &FUN
         COPY     #GLOBAL
         GBLA     &$FCPC                    Function call parm count
         GBLC     &$SPFR                    Function call parm count
         GBLC     &$SPCS
         LCLC     &N
         LCLA     &I
.*
&NAME    DS       0D
         AIF      ('&FUN' EQ 'START').F1
         AIF      ('&FUN' EQ 'END').F2
         MNOTE    8,'Parameter invalid - must be START or END'
         AGO      .MEND
.F1      ANOP
&$SPCS   SETC     '&SYSECT'
.* --------------------------------------------------------------------
.* Generate frame DSECT
.* --------------------------------------------------------------------
&L.$FR   DSECT
         AIF      ('&$SPFR' NE '0').NZERO
&L.$SA   DS       18F
&L.$PL   DS       (&$FCPC/4)F
&L.$A    EQU      *
         AGO      .MEND
.NZERO   ANOP
         ORG      *+&$SPFR
         AGO      .MEND
.F2      ANOP
.* --------------------------------------------------------------------
.* Generate frame END
.* --------------------------------------------------------------------
&L.$FL   EQU      *-&L.$FR
.*          ORG      &L.$FR
.* &L.TT    DS       XL(&L.$FL)
.* &N       SETC     '&L.TT'
.* &I       SETA     L'&N
.*          MNOTE    0,'FRAME LENGTH = &I'
&$SPCS   CSECT
.MEND    ANOP
         MEND
