         MACRO
&NAME    SETLABEH
&NAME    DS    0H
         MEND
