         MACRO
&NAME    MODE   &AMODE=31
.*-*-*-*-*-*-*-*-*-*-*-*-*-*-*-*-*-*-*-*-*-*-*-*-*-*-*-*-*-*-*-*-*-*-*
.*                                                                   *
.*  SET ADDRESSING MODE.  EITHER 'MODE AMODE=31' OR 'MODE AMODE=24'  *
.*                                                                   *
.* NOTES: EXAMPLE - '    MODE AMODE=31  SET ADDREESSING MODE TO 31   *
.*                  ' -MORE CODE -                                   *
.*                  '    MODE AMODE=24  SET ADDREESSING MODE TO 24   *
.*                                                                   *
.*                                                                   *
.*                                                                   *
.*-*-*-*-*-*-*-*-*-*-*-*-*-*-*-*-*-*-*-*-*-*-*-*-*-*-*-*-*-*-*-*-*-*-*
.*
         LCLC   &I
         GBLA   &B
&I       SETC   '&SYSNDX'
         AIF    (&AMODE EQ 31).MOD31
&NAME    LA     15,RMOD&I
         BSM    0,15
RMOD&I   DS     0H
         AGO    .MEND
.MOD31   ANOP
&NAME    L      15,AMOD&I
         BSM    0,15
AMOD&I   DC     A(CON&I+X'80000000')
CON&I    DS     0H
.MEND    MEND
