SYSTAT TITLE 'SYSTEM STATUS - DISPLAY MVS/XA CONTROL BLOCK INFORMATION'
         MACRO
&NAME    MODE   &AMODE=31
.*-*-*-*-*-*-*-*-*-*-*-*-*-*-*-*-*-*-*-*-*-*-*-*-*-*-*-*-*-*-*-*-*-*-*
.*                                                                   *
.*  SET ADDRESSING MODE.  EITHER 'MODE AMODE=31' OR 'MODE AMODE=24'  *
.*                                                                   *
.* NOTES: EXAMPLE - '    MODE AMODE=31  SET ADDRESSING MODE TO 31    *
.*                  ' -MORE CODE -                                   *
.*                  '    MODE AMODE=24  SET ADDRESSING MODE TO 24    *
.*                                                                   *
.*                                                                   *
.*                                                                   *
.*-*-*-*-*-*-*-*-*-*-*-*-*-*-*-*-*-*-*-*-*-*-*-*-*-*-*-*-*-*-*-*-*-*-*
.*
         LCLC   &I
         GBLA   &B
&I       SETC   '&SYSNDX'
         AIF    (&AMODE EQ 31).MOD31
&NAME    LA     15,RMOD&I
         BSM    0,15
RMOD&I   DS     0H
         AGO    .MEND
.MOD31   ANOP
&NAME    L      15,AMOD&I
         BSM    0,15
AMOD&I   DC     A(CON&I+X'80000000')
CON&I    DS     0H
.MEND    MEND
         SPACE 3
         MACRO
         TESTOPEN &DCB
.*---------------------------------------------------------------*
.*  FUNCTION: SEE IF DCB WAS OPENED
.*    RETURN: RC IN R15  (RC=4 NO GOOD)
.*---------------------------------------------------------------*
         AIF ('&DCB' EQ '').ERR1
         LCLC  &I
&I       SETC  '&SYSNDX'
         TM    &DCB+48,B'00010000'
         BO    GOOD&I
         LA    15,4
         B     GOOD&I+4
GOOD&I   LA    15,0
         MEND
         EJECT
*-*-*-*-*-*-*-*-*-*-*-*-*-*-*-*-*-*-*-*-*-*-*-*-*-*-*-*-*-*-*-*-*-*-*-*
*                                                                     *
*             MODULE NAME = SYSTAT                                    *
*                                                                     *
*             DESCRIPTIVE NAME =  SYSTEM STATUS INFORMATION DISPLAY   *
*                ROUTINE TO EXAMINE AND DISPLAY SYSTEM CONTROL BLOCK  *
*                INFORMATION.                                         *
*                                                                     *
*             OPERATING ENVIRONMENT = MVS/XA 2.1 AND ABOVE            *
*                                                                     *
*             FUNCTION =                                              *
*                DISPLAY ADDRESSES AND AVAILABLE PRIVATE REGION       *
*                                                                     *
*             NOTES =  SOME                                           *
*                                                                     *
*              REGISTER USAGE:                                        *
*                                                                     *
*                          R1 ..... PASSING PARMS                     *
*                          R2 ..... ADDRESSING OF CVT PREFIX          *
*                          R3 ..... ADDRESSING OF CVT OS/VS2 EXTENSION*
*                          R4 ..... ADDRESSING OF CVT OS/VS1 AND      *
*                                   OS/VS2 EXTENSION                  *
*                    WORK5,R5 ..... WORK REG: VARIABLE                *
*                    WORK6,R6 ..... WORK REG: VARIABLE                *
*                    WORK7,R7 ..... WORK REG: VARIABLE                *
*                    WORK8,R8 ..... WORK REG: VARIABLE                *
*     BASE4                R9 ..... BASE+4096+4096+4096            MTW*
*     BASE3               R10 ..... BASE+4096+4096                 MTW*
*     BASE2               R11 ..... BASE+4096 REG                     *
*     BASE1               R12 ..... BASE REG                          *
*                         R13 ..... SAVE AREA AND BASE REG         MTW*
*                  BALREG,R14 ..... FOR BRANCHING                     *
*                         R15 ..... USUAL                             *
*                                                                     *
*             MACROS = IBM: CAMLST, DCB, LOCATE, OPEN, PUT, RDJFCB,MTW*
*                           STFSMODE, STLINENO, STTMPMD,  11/30/87 MTW*
*                           TGET, TPUT, VSMREGN           11/30/87 MTW*
*                    OTHER: MODE - SET AMODE              11/30/87 MTW*
*                           TESTOPEN - CHECK FOR OPEN DCB (SET RC)    *
*                                                                     *
*        SUBROUTINES = PRC: JULSUB BY BILL GODFREY FROM CBT TAPE      *
*                                                         11/30/87 MTW*
*             DSECTS = IBM: CVT, IEESMCA, IEFUCBOB                    *
*                                                                     *
*                    OTHER: CDS, EXITTAB, IEEMBACT,       11/30/87 MTW*
*                           IHAGDA, IRARMCT, RDS, SST, STGDSECT    MTW*
*                                                                     *
*             MODULE TYPE = PROCEDURE                                 *
*                                                                     *
*                PROCESSOR = ASMH                                     *
*                                                                     *
*-*-*-*-*-*-*-*-*-*-*-*-*-*-*-*-*-*-*-*-*-*-*-*-*-*-*-*-*-*-*-*-*-*-*-*
  EJECT
*-*-*-*-*-*-*-*-*-*-*-*-*-*-*-*-*-*-*-*-*-*-*-*-*-*-*-*-*-*-*-*-*-*-*-*
*                                                                     *
*             ENTRY POINTS = SYSTAT   (ONLY ENTRY POINT)              *
*                                                                     *
*             INPUT = NONE                                            *
*                                                                     *
*             OUTPUT = EITHER TO DDNAME SYSOUT OR TPUT'S UNDER TMP    *
*                      (NOTE: SYSOUT IS OPENED AS A DSORG=PS FILE)    *
*                                                                     *
*             EXIT - NORMAL = AT PROGRAM END VIA BRANCH REGISTER 14   *
*                                                                     *
*             EXIT - ERROR = NONE                                     *
*                                                                     *
*             EXTERNAL REFERENCES = NONE                              *
*                                                                     *
*             TABLES = MANY ...                                       *
*                                                                     *
*             AUTHOR = MARK V. HEDGES                                 *
*                      ADRIA LABORATORIES  (new)                      *
*                      7001 POST ROAD                                 *
*                      DUBLIN OH. 43017                               *
*                      (614) 764-8175                                 *
*                                                                     *
*             MESSAGES = NONE                                         *
*                                                                     *
*             ABEND CODES = NONE - WE HOPE                            *
*                                                                     *
*                                                                     *
* NOTE1: EACH SUB-SECTION STORES THE 'BALREG' AS ITS FIRST INSTR.     *
*       AND AS ITS LAST IT LOADS IT. SO THE INTEGRITY OF THAT         *
*       REGISTER IS NEVER IN QUESTION.                                *
*                                                                     *
* NOTE2: ALL MODE-SETTING NECCESSARY TO ADDRESS EXTENDED STORAGE      *
*        IS PERFORMED IN THE SUB-SECTION.                             *
*                                                                     *
* -----------------------  CHANGE SECTION  ---------------------------*
*                                                                     *
* 11/30/87 MICHAEL WILCOX SUBSTITUTE THE JULSUB SUBROUTINE FOR $STCK. *
*          ADD DISPLAY OF IPL DAY-OF-WEEK AND ELAPSED TIME SINCE IPL. *
*          ADD DISPLAY OF NUMBER OF CPUS ONLINE.                      *
*          ADD DISPLAY OF SMFPRMnn DATA.                              *
*          ADD DISPLAY OF LINK LIST DATA SET NAMES.                   *
*          FIX SEVERAL BUGS IN APF DATA SET NAMES DISPLAY PROMPTING.  *
*          S0C4 IN CPU SERIAL NUMBER LOGIC.  ACCOMMODATE 8 PROCESSORS.*
*          CHANGE SYSRES UCB TESTS FROM "CLI" TO "TM" INSTRUCTIONS.   *
*          BIT TO TEST FOR A SHARED SYSRES IS "UCBRR", NOT "UCBRPS".  *
*          MAKE TPUT/TGET LOGIC CONFORM TO FULL SCREEN PROTOCOLS.     *
*          ENTIRELY REPLACE DISPLAY OF SYSTEM STORAGE AREA ADDRESSES. *
*                                                                     *
*          - MY THANKS TO MICHAEL                                 MVH *
*                                                                     *
* 01/28/88 SUBCHANNEL NUMBER FOR SYSRES CAUSES ABEND 0C7 WHEN         *
*          IT'S NOT NUMERIC, MAKES SENSE !!                       MVH*
*                                                                     *
* -----------------------  Things to do  -----------------------------*
*          Any abitious individuals who would like to rewite this     *
*              to make it re-enterent ??                              *
*          How about each routine as its own called subroutine ?      *
*                                                                     *
*                                                                     *
*-*-*-*-*-*-*-*-*-*-*-*-*-*-*-*-*-*-*-*-*-*-*-*-*-*-*-*-*-*-*-*-*-*-*-*
         EJECT  ,                                          11/30/87 MTW
SYSTAT   CSECT
         SAVE  (14,12),,SYSTAT_&SYSDATE._&SYSTIME._V2.0    11/30/87 MTW
         LR     R12,R15               * LOAD 1ST 4K        11/30/87 MTW
         USING  SYSTAT,R12,R11,R10,R9 * R12, R11, R10, AND R9 BASE REGS
         L      R11,BASE2             * LOAD 2ND 4K
         L      R10,BASE3             * LOAD 3RD 4K
         L      R9,BASE4              * LOAD 4TH 4K        11/30/87 MTW
         L      R15,BASE5             * POINT TO SAVE AREA 11/30/87 MTW
         ST     R15,8(,R13)           * FORWARD CHAIN      11/30/87 MTW
         ST     R13,4(,R15)           * BACKWARD CHAIN     11/30/87 MTW
         LR     R13,R15               * POINT TO SYSTAT SAVE AREA   MTW
         USING  SAVE,R13              * R13 GIVES 5TH 4K   11/30/87 MTW
         B      *+4+4+4+4+4           * SKIP EXT-ADDR.     11/30/87 MTW
BASE2    DC     A(SYSTAT+4096)
BASE3    DC     A(SYSTAT+4096+4096)
BASE4    DC     A(SYSTAT+4096+4096+4096)
BASE5    DC     A(SAVE)                                    11/30/87 MTW
         SPACE
BALREG   EQU    14                    * BAL RETURN REG
WORK5    EQU    5                     * WORK REG
WORK6    EQU    6                     * WORK REG EVEN
WORK7    EQU    7                     * WORK REG ODD
WORK8    EQU    8                     * WORK REG WHAT EVER
         SPACE
         SPLEVEL SET=2
         SPACE
         ST     R1,SAVE1              * SAVE PARM IF ANY
         BAL    BALREG,$GETDCB        * CHECK FOR ALLOCATIONS
         BAL    BALREG,$GETDATE       * RETREIVE DATE AND TIME INFO
         BAL    BALREG,$GETCVT        * ADDRESS ALL CVT AREAS
         BAL    BALREG,$GETSMF        * RETREIVE SMF INFO (IPL RELATED)
         BAL    BALREG,$GETRES        * INFO OF SYSRES VOLSER
         BAL    BALREG,$CVTINFO       * GET CVT CONTROL BLOCK INFO
         BAL    BALREG,$PCCAVT        * GET CPU SERIAL NUMBER
         BAL    BALREG,$VIRTADR       * OBTAIN PRIVATE STORAGE INFO
         BAL    BALREG,$SRMPARM       * SRM PARMS: OPT, ICS, IPS
         BAL    BALREG,$STORAGE       * GET STORAGE ADDRESSES
         BAL    BALREG,$CONADR        * CONVERT STORAGE ADDR TO EBCDIC
         BAL    BALREG,$STORMAP       * CREATE STORAGE MAP
         BAL    BALREG,$TERMPUT       * TERMINAL 'TPUTS'
         BAL    BALREG,$PUTSMF        * WRITE THE SMF SMCA TABLE    MTW
         BAL    BALREG,$GETLLT        * EXAMINE LINK LIST TABLE, LOAD
         BAL    BALREG,$PUTLLT        * AND WRITE THE DSN TABLE     MTW
         BAL    BALREG,$GETAPF        * EXAMINE THE APF TABLE, LOAD MTW
         BAL    BALREG,$PUTAPF        * AND WRITE THE DSN TABLE     MTW
         B      $FINISH               * THAT'S ALL FOLKS
         SPACE  3                                          11/30/87 MTW
*-*-*-*-*-*-*-*-*-*-*-*-*-*-*-*-*-*-*-*-*-*-*-*-*-*-*-*-*-*-*-*-*-*-*-*
*                                                                     *
* READ JFCB FOR SYSOUT DATASET IF ALLOCATED                           *
*                                                                     *
*-*-*-*-*-*-*-*-*-*-*-*-*-*-*-*-*-*-*-*-*-*-*-*-*-*-*-*-*-*-*-*-*-*-*-*
         SPACE
$GETDCB  DS     0H
         ST     BALREG,SAVBAL         * SAVE BAL REG
         RDJFCB SYSOUT               * DDNAME ALLOCATED ?
         LTR    R15,R15              * TEST RESULTS
         BNZ    ENDDCB               * NOPE, DO TPUTS
         OPEN   (SYSOUT,OUTPUT)      * OPEN SYSOUT FILE
         TESTOPEN SYSOUT             * IS DDNAME THERE
         LTR    R15,R15              * TEST OPEN
         BNZ    ENDDCB               * NOPE, DO TPUTS
         MVI    OPENFLG,X'FF'        * GOOD OPEN, SET FLAG
ENDDCB   L      BALREG,SAVBAL        * LOAD BAL REG
         BR     BALREG               * RETURN
         EJECT
*-*-*-*-*-*-*-*-*-*-*-*-*-*-*-*-*-*-*-*-*-*-*-*-*-*-*-*-*-*-*-*-*-*-*-*
*                                                                     *
* GET CURRENT DATE AND TIME INFO. AND STORE IT.                       *
*                                                                     *
*-*-*-*-*-*-*-*-*-*-*-*-*-*-*-*-*-*-*-*-*-*-*-*-*-*-*-*-*-*-*-*-*-*-*-*
         SPACE
$GETDATE DS     0H
         ST     BALREG,SAVBAL         * SAVE BAL REG
         LA     R1,1                                       11/30/87 MTW
         ST     R1,JULPARM2           * INPUT FORMAT CODE  11/30/87 MTW
         XC     JULPARM1,JULPARM1     * INPUT DATE OF ZERO 11/30/87 MTW
         LA     R1,1+16+128+512                            11/30/87 MTW
         ST     R1,JULPARM4           * OUTPUT FORMAT CODE 11/30/87 MTW
         LA     R1,JULPTRS                                 11/30/87 MTW
         L      R15,=V(JULSUB)                             11/30/87 MTW
         BALR   R14,R15                                    11/30/87 MTW
         L      R1,JULPARM3           * LOAD JULIAN DATE   11/30/87 MTW
         CVD    R1,DWORD              * CONVERT IT AND ... 11/30/87 MTW
         ED     CURDATE,DWORD+5       *         EDIT IT    11/30/87 MTW
         MVC    CURTIME,JULPARM3+36   * CURRENT TIME OF DAY11/30/87 MTW
         MVC    CURWKDAY(9),JULPARM3+24         DAY OF WEEK11/30/87 MTW
         MVC    CURMDY,JULPARM3+4     *      MONTH DAY YEAR11/30/87 MTW
         L      BALREG,SAVBAL         * RELOAD BAL REG
         BR     BALREG                * RETURN
         EJECT
*-*-*-*-*-*-*-*-*-*-*-*-*-*-*-*-*-*-*-*-*-*-*-*-*-*-*-*-*-*-*-*-*-*-*-*
*                                                                     *
* SET ADDRESSABLITIY FOR ALL CVT DSECTS: OS/VS2 AND OS/VS1/VS2 EXTEN. *
*                                                                     *
*-*-*-*-*-*-*-*-*-*-*-*-*-*-*-*-*-*-*-*-*-*-*-*-*-*-*-*-*-*-*-*-*-*-*-*
         SPACE
$GETCVT  DS     0H
         ST     BALREG,SAVBAL         * SAVE BAL REG
         L      R2,CVTPTR             * GET CVT POINTER
         S      R2,=F'256'            * TO CVT PREFIX
         USING  CVTFIX,R2             * ADDRESS CVT PREFIX
         L      R3,CVTSMEXT           * LOAD STORAGE EXTENSION
         USING  CVTVSTGX,R3           * ADDRESS PATCH AREA
         L      R4,CVTEXT2            * CVT EXTENSION OS/VS1-OS/VS2
         USING  CVTXTNT2,R4           * ADDRESS IT
         L      BALREG,SAVBAL         * LOAD BAL REG
         BR     BALREG                * RETURN
         EJECT
*-*-*-*-*-*-*-*-*-*-*-*-*-*-*-*-*-*-*-*-*-*-*-*-*-*-*-*-*-*-*-*-*-*-*-*
*                                                                     *
* GET SMF IPL DATE+TIME, CREATE A TABLE OF SMCA DATA      11/30/87 MTW*
*                                                                     *
*-*-*-*-*-*-*-*-*-*-*-*-*-*-*-*-*-*-*-*-*-*-*-*-*-*-*-*-*-*-*-*-*-*-*-*
         SPACE
$GETSMF  DS     0H
         ST     BALREG,SAVBAL         * SAVE BAL REG
         L      WORK5,CVTSMCA         * POINT TO SMF: 0 IF NOT THERE
         C      WORK5,=F'0'           * ANY ADDRESS?
         BE     NOSMF                 * NOPE, SMF NOT ACTIVE !
         USING  SMCABASE,WORK5        * SMF DSECT
         MVC    SYSID(4),SMCASID      * SYSTEM ID  +(16)
         MVC    MTIME(4),SMCAITME     * IPL TIME +(336) BINARY
         MVC    PDATE(4),SMCAIDTE     * IPL DATE +(340) 00YYDDDF
* SMF BUFFER INFO
         XR     WORK7,WORK7           * CLEAR WORK
         LH     WORK7,SMCAMNBF        * SMF MIN BUFFERS
         CVD    WORK7,DWORD           * CONVERT IT AND ...
         ED     SMFMBUF(6),DWORD+5    *         EDIT IT
         XR     WORK7,WORK7           * CLEAR WORK
         LH     WORK7,SMCAMXBF        * SMF MAX BUFFERS
         CVD    WORK7,DWORD           * CONVERT IT AND ...
         ED     SMFXBUF(6),DWORD+5    *         EDIT IT
         L      WORK7,SMCABFLS        * # RECORDS LOST DUE TO BUFF.LOW
         CVD    WORK7,DWORD           * CONVERT IT AND ...
         ED     SMFLOST(10),DWORD+3   *         EDIT IT
         L      WORK7,SMCABFWT        * # RECORDS WRITEN TO BUFFERS
         CVD    WORK7,DWORD           * CONVERT IT AND ...
         ED     SMFBUFD(10),DWORD+3   *         EDIT IT
* EDIT IPL DATE                                            11/30/87 MTW
         ED     IPLDATE(7),PDATE+1    * EDIT IPL DATE      11/30/87 MTW
         LA     R1,3                                       11/30/87 MTW
         ST     R1,JULPARM2           * INPUT FORMAT CODE  11/30/87 MTW
         MVC    JULPARM1,PDATE        * PACKED INPUT DATE  11/30/87 MTW
         LA     R1,16+128                                  11/30/87 MTW
         ST     R1,JULPARM4           * OUTPUT FORMAT CODE 11/30/87 MTW
         LA     R1,JULPTRS                                 11/30/87 MTW
         L      R15,=V(JULSUB)                             11/30/87 MTW
         BALR   R14,R15                                    11/30/87 MTW
         MVC    IPLWKDAY(9),JULPARM3+20   IPL DAY OF WEEK  11/30/87 MTW
         MVC    IPLMDY,JULPARM3       * IPL MONTH DAY YEAR 11/30/87 MTW
* EDIT IPL TIME
         L      WORK7,MTIME           * LOAD TIME
         XR     WORK6,WORK6           * CLEAR REG
         D      WORK6,=F'360000'      * DIVIDE
         CVD    WORK7,DWORD           * CONVERT
         OI     DWORD+7,X'0F'         * OR
         UNPK   IPLTIME(2),DWORD+6(2) * UNPACK             11/30/87 MTW
         LR     WORK7,WORK6           * AND AGAIN ...
         XR     WORK6,WORK6           *
         D      WORK6,=F'6000'        *
         CVD    WORK7,DWORD           *
         OI     DWORD+7,X'0F'         *
         UNPK   IPLTIME+3(2),DWORD+6(2)                    11/30/87 MTW
         LR     WORK7,WORK6           * AND AGAIN ...      11/30/87 MTW
         XR     WORK6,WORK6           *                    11/30/87 MTW
         D      WORK6,=F'100'         *                    11/30/87 MTW
         CVD    WORK7,DWORD           *                    11/30/87 MTW
         OI     DWORD+7,X'0F'         *                    11/30/87 MTW
         UNPK   IPLTIME+6(2),DWORD+6(2)                    11/30/87 MTW
* SMFPRM MEMBER NAME SUFFIX                                11/30/87 MTW
         L      WORK6,SMCAACTP        * POINT TO ACT
         USING  IEEMBACT,WORK6
         MVC    SMFPRM,ACTMEMID
         DROP   WORK6
* GETMAIN DYNAMIC STORAGE FOR THE TABLE OF SMCA DATA       11/30/87 MTW
SMFGMAIN LA     R0,100                * ROOM FOR 100 SMCA TABLE ENTRIES
         MH     R0,=H'60'             *     OF LENGTH 60
         ST     R0,GETSIZE            * SAVE SMCA TABLE SIZE
         GETMAIN R,LV=(0),RELATED=(SMFFMAIN)
         ST     R1,GETREG             * SAVE SMCA TABLE ADDRESS
* SID, JWT, MAXDORM AND STATUS                             11/30/87 MTW
         MVC    WKSMFSID,=C'SID(XXXX)'
         MVC    WKSID,SMCASID
         MVC    WKJWT,=C'JWT(HHMM)'
         MVC    WKJWT#,SMCASJWT
         MVC    WKMAXDRM,=C'MAXDORM(MMSS)'
         MVC    WKMAXDM#,SMCASMDM
         MVC    WKSTATUS,=C'STATUS(HHMMSS)'
         MVC    WKSTTUS#,SMCASSTS
         BAL    BALREG,SAVESMCA       * SAVE SMF WORK BUFFER IN TABLE
* SELECTIVITY TABLES                                       11/30/87 MTW
         L     WORK6,SMCASSTP           A(SELECTIVITY TABLES)
         USING SST,WORK6
         LH    WORK7,SMCANSST           NUMBER OF SELECTIVITY TABLES
SSTLOOP  DS    0H
         TM    SSTFLAGS,SSTACTIV        Q. THIS SST IN USE
         BZ    NEXTSST                  NO.
         MVC   WKNAME,SSTNAME           SYS/SUBSYS
         LA    WORK8,WKNAME+3
         CLI   0(WORK8),C' '
         BNE   *+4+2
         BCTR  WORK8,0
         MVI   1(WORK8),C':'
         LA    WORK8,3(,WORK8)
         TM    SSTFLAGS,SSTDETAL        Q. DETAILED ACCTNG
         BNZ   *+4+6+4                  YES.
         MVC   0(2,WORK8),=C'NO'        NO.
         LA    WORK8,2(,WORK8)
         MVC   0(6,WORK8),=C'DETAIL'
         LA    WORK8,7(,WORK8)
         MVC   0(10,WORK8),=C'NOINTERVAL'
         CLC   SSTINTVL+1(7),SSTINTVL   Q. ANY INTERVAL
         BE    NOINTVL                  NO.
         MVC   0(16,WORK8),=C'INTERVAL(HHMMSS)'
         LM    R0,R1,SSTINTVL
         SRDL  R0,12
         D     R0,=F'1E6'               R1=SECONDS
         SR    R0,R0
         D     R0,=A(60*60)             R1=HOURS
         CVD   R1,DWORD
         UNPK  9(2,WORK8),DWORD
         SRDL  R0,32
         D     R0,=A(60)                R1=MINUTES
         CVD   R1,DWORD
         UNPK  11(2,WORK8),DWORD
         CVD   R0,DWORD                 R0=SECONDS
         UNPK  13(2,WORK8),DWORD
         MVZ   10(5,WORK8),9(WORK8)
NOINTVL  DS    0H
         BAL   BALREG,SAVESMCA
         L     R15,SSTEXTAB             A(EXIT TABLES)
         USING EXITTAB,R15
         L     R14,EXITNMBR             NUM EXITS
         LTR   R14,R14                  Q. ANY EXITS
         BZ    NOEXITS                  NO.
         MVC   WKEXITS,=C'EXITS'        PRINT EXITS (SANS "IEF")
         LA    R15,EXITNTRY
         USING EXITNTRY,R15
         LA    R1,WKEXIT#               A(FIRST POS)
EXITLOOP DS    0H
         MVI   0(R1),C','
         MVC   1(5,R1),EXITNAME+3
         LA    R1,1(,R1)
         CLI   0(R1),C' '
         BNE   *-4-4
         LA    R15,16(,R15)
         BCT   R14,EXITLOOP
         MVI   WKEXIT#,C'('             ENCLOSE EXIT NAMES
         MVI   0(R1),C')'               "       "    "
         BAL   BALREG,SAVESMCA
NOEXITS  DS    0H
NEXTSST  DS    0H
         AH    WORK6,SMCALSST           A(NEXT SEL. TABLE)
         BCT   WORK7,SSTLOOP            NO.
         DROP  WORK6,R15
* SMF VSAM CLUSTER NAMES
         L     WORK6,SMCAFRDS           A(FIRST RECORDING D/S BLOCK)
         USING RDS,WORK6
         MVI   WKPRIM,C'P'              FIRST ONE IS PRIMARY
RDSLOOP  DS    0H
         MVC   WKSMFDSN,=C'-DSN(SYS1.MANX)'
         MVC   WKDSN,RDSNAME            SMF DSNAME
         MVC   WKSMFVOL,=C'VOL(XXXXXX)'
         MVC   WKVOL,RDSVOLID           SMF VOLSER
         MVC   WKBLOCKS,=C'BLKS(XXXXXXX)'
         L     R0,RDSCAPTY              CAPACITY (4096-BYTE BLKS)
         CVD   R0,DWORD
         OI    DWORD+7,X'0F'
         UNPK  WKBLKS,DWORD
         MVC   WKFULL,=C'FULL'
         L     R15,RDSNXTBL             NEXT BLOCK
         CR    R15,R0                   Q. FULL
         BZ    QACTVRDS                 YES.
         MVC   WKEMPTY,=C'EMPTY'
         S     R15,=F'1'                Q. EMPTY
         BZ    QACTVRDS
         LTR   R0,R0                    Q. CAPACITY IN RDS
         BZ    QACTVRDS                 NO. AVOID 0C9
         MVC   WKPERCNT,=X'4021204B206C'
         M     R14,=F'1E3'              SHIFT
         DR    R14,R0
         CVD   R15,DWORD
         ED    WKPERCNT(5),DWORD+6
QACTVRDS DS    0H
         C     WORK6,SMCASRBR           Q. ACTIVE D/S
         BNE   *+4+6                    NO.
         MVC   WKACTDSN,=C'ACTIVE'      YES.
         TM    RDSFLAG,RDSDUMP          Q. DUMP REQ'D
         BZ    *+4+6                    NO.
         MVC   WKDUMP,=C'DUMP REQ''D'   YES.
         BAL   BALREG,SAVESMCA
         L     WORK6,RDSNEXT            A(NEXT D/S BLOCK)
         TM    RDSFLAG2,RDSLOST         Q. LOST DATA RDS
         BNZ   ENDRDS                   YES. THAT'S ALL
         MVI   WKSECND,C'S'             NO. INDIC SECONDARY D/S
         B     RDSLOOP                  LOOP
         DROP   WORK5,WORK6                                11/30/87 MTW
ENDRDS   DS     0H                                         11/30/87 MTW
NOSMF    DS     0H                                         11/30/87 MTW
         L      BALREG,SAVBAL         * LOAD BAL REG
         BR     BALREG                * RETURN             11/30/87 MTW
         SPACE  1                                          11/30/87 MTW
* SUBROUTINE TO SAVE SMF WORK BUFFER IN AN SMCA TABLE ENTRY11/30/87 MTW
SAVESMCA DS     0H
         LH     R15,SMFCOUNT          * CURRENT SMCA TABLE ENTRY COUNT
         MH     R15,=H'60'            * POINT TO
         A      R15,GETREG            *     NEXT SMCA TABLE ENTRY
         MVC    0(60,R15),WORKBUF     * WORK BUFFER INTO SMCA TABLE
         LH     R15,SMFCOUNT          * BUMP SMCA TABLE
         LA     R15,1(,R15)           *     ENTRY COUNT
         STH    R15,SMFCOUNT          *         BY ONE
         MVC    WORKBUF,WORKBUF-1     * CLEAR WORK BUFFER
         C      R15,=F'100'           * END OF SMCA TABLE?
         BNL    NOSMF                 * YES, STOP COLLECTING SMCA DATA
         BR     BALREG                * RETURN
         EJECT
*-*-*-*-*-*-*-*-*-*-*-*-*-*-*-*-*-*-*-*-*-*-*-*-*-*-*-*-*-*-*-*-*-*-*-*
*                                                                     *
* GET INFORMATION FROM THE SYSRES VOLUME                              *
*                                                                     *
*-*-*-*-*-*-*-*-*-*-*-*-*-*-*-*-*-*-*-*-*-*-*-*-*-*-*-*-*-*-*-*-*-*-*-*
         SPACE
$GETRES  DS     0H
         ST     BALREG,SAVBAL         * STOR BAL REG
         L      WORK6,CVTSYSAD        * UCB ADDR FOR SYSRES
         LA     WORK7,UCBPRFX         * PREFIX UCB AREA
         SR     WORK6,WORK7           * MOVE BACK TO ADDRESS IT
         USING  UCB,WORK6             * ADDRESS UCB DSECT
         SPACE
* CHECK FOR UCB: ONLINE, DEVICE ALLOCATED, MOUNTED PERM, AND SYSRES
         SPACE
         TM     UCBSTAT,UCBONLI+UCBALOC+UCBPRES+UCBSYSR    11/30/87 MTW
         BO     *+12                                       11/30/87 MTW
         TM     UCBSTAT,UCBONLI+UCBPRES+UCBSYSR            11/30/87 MTW
         BNO    NSYSRES                                    11/30/87 MTW
         MVC    SYSRES(6),UCBVOLI     * VOLSER OF SYSRES
         MVC    UNITADR(3),UCBNAME    * UNIT ADDR
*        LA     WORK7,X'F0'           * SET SIGN NIBBLE    11/30/87 MTW
*        ICM    WORK7,B'0110',UCBSCHNO  LOAD SUBCHANNEL NUMBER      MTW
*        SRL    WORK7,4               * NOW WORK7='000N NNNF' PACKED!
*        ST     WORK7,#SUBCHAN        * STORE IT           11/30/87 MTW
*        ED     SUBCHAN,#SUBCHAN+1    * EDIT RESULTS       11/30/87 MTW
         LH     WORK7,UCBSCHNO        * LOAD SUBCHANNEL #  01/28/88 MVH
         CVD    WORK7,DWORD           * DECIMAL            01/28/88 MVH
         ED     SUBCHAN(6),DWORD+5    * EDIT IT            01/28/88 MVH
         MVC    PATHS(8),UCBCHPID     * PATHS
         LA     WORK7,X'F0'           * SET SIGN NIBBLE    11/30/87 MTW
         ICM    WORK7,B'0110',UCBCHAN * LOAD DEVICE NUMBER 11/30/87 MTW
         SRL    WORK7,4               * NOW WORK7='000N NNNF' PACKED!
         ST     WORK7,#DEVNO          * STORE IT           11/30/87 MTW
         ED     DEVNO,#DEVNO+1        * EDIT RESULTS       11/30/87 MTW
         TM     UCBMIHTI,UCBPGDEV     * PAGING DEVICE ??   11/30/87 MTW
         BNO    *+10                  * PAGING FLAG        11/30/87 MTW
         MVC    PAGEDEV(3),=C'YES'    * NOTIFY - THIS DEVICE: PAGING
         TM     UCBTBYT2,UCBRR        * SHARABLE ?         11/30/87 MTW
         BNO    *+10                  * PAGING FLAG        11/30/87 MTW
         MVC    SHARE(3),=C'YES'      * SHARABLE ?
         LA     R1,UCBVTOC            * TTR0 OF VTOC       11/30/87 MTW
         BAL    BALREG,HEXOUT         * CONVERT TTR0 TO EBCDIC      MTW
         MVC    TTR0(8),HEXWORK       * SAVE TTR0 IN EBCDIC11/30/87 MTW
         LH     WORK7,UCBUSER         * NUMBER OF USERS
         DROP   WORK6                 * DON'T NEED IT ANY MORE
         CVD    WORK7,DWORD           * CONVERT IT
         ED     USERS(6),DWORD+5      * EDIT RESULTS
* PATH DETERMINATION
         LA     WORK7,PATHS-1         * LOAD ADDRESS OF PATHS
         LA     WORK6,8               * MAX CHANNEL PATHS
         LA     WORK5,CHPIDS-4        * CHPID TABLE ADDR
PATHLOOP LA     WORK7,1(,WORK7)       * LOAD NEXT ADDR
         CLI    0(WORK7),X'FF'        * EMPTY CHPID ?
         BE     PATHDONE              * YEP, ALL DONE
         LA     WORK8,X'F0'           * SET SIGN NIBBLE    11/30/87 MTW
         ICM    WORK8,B'0010',0(WORK7)  LOAD CHANNEL PATH IDENTIFIERMTW
         SRL    WORK8,4               * NOW WORK8='0000 0NNF' PACKED!
         STH    WORK8,PPATHS          * STORE IT
         A      WORK5,=F'4'           * NEXT ADDR IN TABLE
         MVC    0(4,WORK5),EDITPATH   * MOVE EDIT
         ED     0(4,WORK5),PPATHS     * EDIT RESULTS