         MACRO
&NAME    NCT   &TYPE=DSECT,&PREFIX=NCT
.*
.*       CHANGE LOG
.*       05/13/81  MARTIN M L - ADD NCTU84 IN SUPPORT OF SMFU84
.*                              FOR SP1
.*10/30/86  W J WARRINER - CHANGED FORMAT FOR HCC USE
.*
         LCLC  &P
&P       SETC  '&PREFIX'
.*
.*       THIS MACRO GENERATES THE NETWORK CONTROL TABLE(NCT).
.*       THE NCT IS BUILT AT SYSTEM INITIALIZATION TIME.
.*
*
*        NETWORK COMMUNICATIONS TABLE
*
&NAME    TYPE  &TYPE
&P.SPLN  DS    0A
&P.SIZE  EQU   *
&P.POOL  DC    AL1(&P.SP)               SUBPOOL
&P.LGTH  DC    AL3(&P.LEN)              LENGTH
&P.IDBLK DC    CL4'NCT '                BLOCK TYPE IDENTIFIER
&P.CPUID DS    CL4                      CPU ID (SMF ID)
&P.ID    DC    CL4'HCC '                INSTALLATION ID
*        THE TIME AND DATE BELOW ARE ACTUALLY THOSE
*        VALUES WHEN THE FIRST NCT WAS CREATED.
*        THEY ARE COPIED FORWARD IF A NEW NCT IS CREATED.
&P.IPLDT DS    PL4                      IPL DATE
&P.IPLTM DS    XL4                      IPL TIME
&P.NAC   DC    A(0)                     ACCOUNT CONTROL DATA AREA
&P.ACCT  DC    A(0)                     ACCT LMOD ADDRESS
&P.DSVER DS    A(0)                     DATASET VERIFICATION ROUTINE
&P.TCMTM DS    2F                       TCAM STARTUP TIME      02/28/78
&P.NTT   DS    A                        NETWORK TCAM TABLE
&P.DADSM DS    A                        HCCDADSM ENTRY ADDRESS
&P.DAPRM DS    A                        A(DADSM PARM FIELD)
&P.XMEM  EQU   *                        START OF CROSS-MEMORY AREA
&P.WCVT  DS    A                        ADDR WORST CVT
&P.WASCB DS    A                        ADDR WORST ASCB
&P.SMASK DS    XL1                      SYSTEM MASK (AUTH ALLOWED)
         DS    XL3                      RESERVED FOR FUTURE EXPANSION
         DS    3A(0)                    RESERVED           MLG-11/09/82
         DS    0D                       INSURE ALIGNMENT TO DOUBLEWORD
&P.SP    EQU   241                      SUBPOOL NUMBER FOR NCT
&P.LEN   EQU   *-&P.SIZE                LENGTH OF NCT
         MEND
