         MACRO
&NAME    TYPE  &TYPE
         AIF   ('&TYPE' NE 'DSECT').CS
&NAME    DSECT
         MEXIT
.CS      AIF   ('&TYPE' NE 'CSECT').OM
&NAME    CSECT
         MEXIT
.OM      AIF   (T'&TYPE NE 'O').DS
&NAME    DS    0F
         MEXIT
.DS      ANOP
&NAME    DS    &TYPE
         MEND
