.**********************************************************************
.*   WORK AREA                                                        *
.**********************************************************************
         MACRO
&NAME    HSCWAREA
WORKAREA DSECT
WXCALADR DS    F                       SLSXCAL ENTRY POINT
ARGTADDR DS    F
ENVB@    DS    F                       addr of environment block
IRXEXCO@ DS    F                       IRXEXCOM entru address
EXCOPLST DS    4F                      work area for CALL (hsc@setv)
FUNCTION DS    CL16
EXITCODE DS    CL2
         DS    0D
DECNUMBR DS    PL8
HEXNUMBR DS    XL9
BCDNUMBR DS    CL17
*
VOLUME   DS    CL6
         DS    CL2
         DS    0F
DRIVEADR DS    CL4
         DS    0H
CUAADDR  DS    H
TOLSMID  DS    H
STEMCONT DS    PL2
*
* HSC@SETV WORK SECTION
*
         DS    0F
VACCPARM EQU   *
VACCP1   DS    A                    ECODE
VACCP2   DS    A                    NAMEPTR
VACCP3   DS    A                    NAMELEN
VACCP4   DS    A                    VALUEPTR
VACCP5   DS    A                    VALUELEN
VACCP6   DS    A                    TOKEN
*
PARAM1   DS    CL8
PARAM2   DS    A
PARAM3   DS    A
PARAM4   EQU   *
SHVNEXT  DS    A
SHVUSER  DS    F
SHVCODE  DS    CL1
SHVRET   DS    XL1
         DS    H'0'
SHVBUFL  DS    F
SHVNAMA  DS    A
SHVNAML  DS    F
SHVVALA  DS    A
SHVVALL  DS    F
PARAM5   DS    A
PARAM6   DS    A
*
NAMEVAR  DS    CL16
VALUEVAR DS    CL80
*
SLSXPARM SLSXREQ MF=L
WAREALEN EQU   *-WORKAREA
         MEND
