         macro
&NAME    @ESTAE &EXIT,&TYPE,&PARAM=I,&XCTL=NO,&MF=I,&PURGE=,&ASYNCH=,  +
               &TCB=,&ESTAR=,&TERM=,&RECORD=,&BRANCH=,&SVEAREA=,       +
               &CANCEL=,&RELATED=,&KEY=,&TOKEN=,&TKNPASS=NO,           +
               &SDWALOC31=YES
         copy  CBTGBLVR
         aif   (&derzos).zos
&NAME    ESTAE &EXIT,&TYPE,PARAM=&PARAM,key=&KEY,                      +
               xctl=&XCTL,mf=&MF,purge=&PURGE,asynch=&ASYNCH,          +
               tcb=&TCB,estar=&ESTAR,term=&TERM,record=&RECORD,        +
               branch=&BRANCH,svearea=&SVEAREA,cancel=&CANCEL,         +
               related=&RELATED,token=&TOKEN,tknpass=&TKNPASS
         mexit
.zos     anop
&NAME    ESTAE &EXIT,&TYPE,PARAM=&PARAM,key=&KEY,                      +
               xctl=&XCTL,mf=&MF,purge=&PURGE,asynch=&ASYNCH,          +
               tcb=&TCB,estar=&ESTAR,term=&TERM,record=&RECORD,        +
               branch=&BRANCH,svearea=&SVEAREA,cancel=&CANCEL,         +
               related=&RELATED,token=&TOKEN,tknpass=&TKNPASS,         +
               sdwaloc31=&SDWALOC31
         mend
