.*
.*
.*                    +----------+
.*    MACRO NAME   -  | @VGLOBAL |
.*                    +----------+
.*
.*    Function -
.*
.*
.*    Syntax -
.*
.*
.*    Operation -
.*
.*
.*    Author -
.*         Name     :  Deru Sudibyo
.*                     Technical Consultant
.*                     Computer Associates
.*                     Indonesia Office
.*                     Wisma BNI-46 34th floor, BNI-46 City
.*                     Jl. Jend. Sudirman, Kav 1, Jakarta Pusat
.*         Copyright:  (C)1998 Deru Sudibyo
.*
.*    Disclaimer -
.*        This macro is developed as a personal support, and is
.*        not a part of CA support matterials.  The purpose is as
.*        a temporary solution or even just a sample.  Therefor,
.*        further modifications and maintenance are client's
.*        responsibilities.
.*
.*    Modification Log -
.*    +--------+------------+--------+---------------------------+
.*    | Date   | Engineer   | V.R.L. | Description               |
.*    +--------+------------+--------+---------------------------+
.*    |98/02/12| Deru S.    | 1.0.0. | First development         |
.*    |        |            |        |                           |
.*    |        |            |        |                           |
.*    |        |            |        |                           |
.*    |        |            |        |                           |
.*    |        |            |        |                           |
.*    |        |            |        |                           |
.*    +--------+------------+--------+---------------------------+
.*
         MACRO
&NAME    @VGLOBAL &place=SVA
         COPY  CBTGBLVR
         lclb  &uselbl
         lclc  &gv(21),&lbl,&lblsz
         aif   ('&place' eq 'SVA').sva
         aif   (&DERSVA).build
         ago   .name
.sva     aif   (&DERSVA).name
         ago   .build
.name    anop
&gv(1)   setc  '&DERSVGR'
&gv(2)   setc  '&DERSVAR'
&gv(3)   setc  '&DERWGRSV'
&gv(4)   setc  '&DERWARSV'
&gv(5)   setc  '&DERDBWD'
&gv(6)   setc  '&DERWORD'
&gv(7)   setc  '&DERPSWSV'
&gv(8)   setc  '&DERSACSV'
&gv(9)   setc  '&DERTMEL'
&gv(10)  setc  '&DERWTOL'
&gv(11)  setc  '&DEROPNL'
&gv(12)  setc  '&DERCLSL'
*
&gv(13)  setc  '&DERMSGL'
&gv(14)  setc  '&DEREDTL'
*
&gv(15)  setc  '&DERDSN '
&gv(16)  setc  '&DERDSNC'
&gv(17)  setc  '&DERDATE'
&gv(18)  setc  '&DERTIME'
&gv(19)  setc  '&DERYDAT'
&gv(20)  setc  '&DERYTIM'
&gv(21)  setc  '&DERWORK'
&gv(22)  setc  '&DERWTOBUF'
         ago   .struc
.build   anop
&lblsz   setc  '&place.GLBSZ'
&uselbl  setb  1
.struc   anop
&lbl     setc  '&place.GLBV'
&lbl     DS    0D
&gv(1)   DC    xL64'00'
&gv(2)   DC    xL64'00'
&gv(3)   DC    xL64'00'
&gv(4)   DC    xL64'00'
&gv(5)   DC    D'0'
&gv(6)   DC    F'0'
&gv(7)   DC    xL8'00'
&gv(8)   DC    xL4'00'
&gv(9)   TIME  LINKAGE=SYSTEM,MF=L
&gv(10)  WTO   TEXT=&DERWORK,MF=L
&gv(11)  OPEN  (,),MF=L
&gv(12)  CLOSE (,),MF=L
         DS    0D
&gv(13)  DC    XL160'00'
&gv(14)  DC    XL80'00'
*
&gv(15)  DC    CL44' '
&gv(16)  DC    F'0'
&gv(17)  DC    CL8'YY/MM/DD'
&gv(18)  DC    CL8'HH:MM:SS'
&gv(19)  DC    CL8' YYYYDDD'
&gv(20)  DC    CL8' HHMMSS'
&gv(21)  DC    CL80' '
         ds    0f
&gv(22)  DC    xL128'00'
         aif   (not &uselbl).end
&lblsz   equ   *-&lbl
.end     anop
         MEND
