         TITLE 'HASP COMMAND PROCESSOR -- PROLOG (LOCAL MACROS)'   @133
         MACRO -- $COMGRUP -- DEFINE GROUP OF COMMAND SUB-PROCESSORS
&NAME    $COMGRUP &A0,&A1,&A2,&A3,&A4,&A5,&A6,&A7,&A8,&A9,&AA,&AB,&AC, C
               &AD,&AE,&AF,&B0,&B1,&B2,&B3,&B4,&B5,&B6,&B7,&B8,&B9,    C
               &DELAY=NO
         LCLC  &I
         GBLC  &COMGRUP
&NAME    DS    0H
         USING *,R8                ADDRESSABILITY
&COMGRUP SETC  '&NAME'
         AIF   ('&DELAY' EQ 'NO').A
         AGO   .C
.A       BR    R1                  GO TO SUB-PROCESSOR SELECTED
         AGO   .XIT
.C       ANOP
&I       SETC  '&SYSNDX'
COF&I    DS    0H                  'BR R1' TO ENTER SUB-PROCESSOR
.XIT     MEND
         EJECT
         MACRO -- $COMTAB -- DEFINE COMMAND TABLE ENTRY            SPR2
&NAME    $COMTAB &VERB,&GROUP,&REDIR=0,&REJECT=0,&LABEL=           SPR2
         LCLC  &V                                                  SPR2
&V       SETC  '&VERB'                                             SPR2
         AIF   ('&V'(1,1) EQ '''' AND '&LABEL' EQ '').BADLAB       SPR2
         AIF   ('&V' EQ '' OR '&GROUP' EQ '').BADPOS               SPR2
         SPACE 1                                                   SPR2
&NAME    DC    0F'0',AL1(&REDIR*16+&REJECT),AL4(&GROUP)            SPR2
         AIF   ('&V'(1,1) EQ '''').REMOVE                          SPR2
         AIF   ('&LABEL' NE '').USELAB                             SPR2
         DC    AL2(C&V-&GROUP)                                     SPR2
         AGO   .GETVLEN                                            SPR2
.REMOVE  ANOP                                                      SPR2
&V       SETC  '&V'(2,K'&V-2)                                      SPR2
.USELAB  DC    AL2(&LABEL-&GROUP)                                  SPR2
.GETVLEN ANOP                                                      SPR2
A&SYSNDX DS    AL1                                                 SPR2
         DC    C'&V'                                               SPR2
B&SYSNDX EQU   *                                                   SPR2
         ORG   A&SYSNDX                                            SPR2
         DC    AL1(B&SYSNDX-A&SYSNDX-2)                            SPR2
         DC    CL7'&V',AL1(0)                                      SPR2
         SPACE 1                                                   SPR2
         MEXIT                                                     SPR2
.BADLAB  MNOTE 8,'LABEL=  KEYWORD SPECIFICATION MISSING'           SPR2
         MEXIT                                                     SPR2
.BADPOS  MNOTE 8,'MISSING VERB OR GROUP SPECIFICATION'             SPR2
         MEND                                                      SPR2
         EJECT                                                     SPR2
         MACRO -- $CRET -- RETURN TO MAIN COMMAND PROCESSOR
&NAME    $CRET &MSG=,&L=,&INFO=,&MSGID=,&JOB=NO                    SPR2
         LCLA  &CNT
         LCLC  &F                                                  SPR2
         AIF   ('&INFO' EQ '' OR '&INFO' EQ 'NO').Z                @133
         EJECT
***********************************************************************
*                                                                     *
*        $CRET -- RETURN TO MAIN COMMAND PROCESSOR                    *
*                                                                     *
*        ROUTINE MAY ISSUE $WTO AND $WAIT AS DIRECTED BY CALLER       *
*                                                                     *
* REGISTERS USED                                                      *
*        R0    = LENGTH OF MESSAGE IF RESPONSE REQUESTED, NOT MSG=OK  *
*        R1    = MESSAGE ADDRESS -- COMMAND                           *
*        R15   = RETURN CODE -- NO MESSAGE, OK, OR GENERAL MESSAGE    *
*                                                                     *
***********************************************************************
.Z       ANOP
&NAME    DS    0H                                                  SPR2
         AIF   ('&MSG' EQ '' AND '&L' EQ '').H
         AIF   ('&MSGID' EQ '').ST                                 SPR2
         AIF   ('&JOB' NE 'NO').YES                                SPR2
&F       SETC  'F'                                                 SPR2
         AGO   .MS                                                 SPR2
.YES     ANOP                                                      SPR2
&F       SETC  'E'                                                 SPR2
.MS      ANOP                                                      SPR2
        $MID   &MSGID                                              SPR2
         MVC   COMMID,=X'&MSGID&F'                                 SPR2
.ST      AIF   ('&L' EQ '').F                                      SPR2
         AIF   ('&L'(1,1) EQ '(').A
         LA    R0,&L
         AGO   .C
.A       AIF   ('&L' EQ '(R0)').B
         LR    R0,&L(1)
.B       AIF   ('&MSG' EQ '').E
         MNOTE 4,'REGISTER FORM OF LENGTH INVALID'
         MEXIT
.C       AIF   ('&MSG' EQ '').E
         AIF   ('&MSG'(1,1) EQ '(').D
         MVC   COMMAND(&L),&MSG                                    SPR2
         AGO   .E
.LITERAL ANOP
&CNT     SETA  K'&MSG-2
         MVC   COMMAND(&CNT),=C&MSG
         LA    R0,&CNT             SET LENGTH OF MSG IN R0
         AGO   .E
.D       MVC   COMMAND(&L),0&MSG
.E       B     X005RC16            RETURN AND ISSUE MESSAGE     JOR0385
         MEXIT                                                  JOR0385
.F       AIF   ('&MSG' EQ 'OK').G
         AIF   ('&MSG'(1,1) EQ '''').LITERAL
         MNOTE 4,'LENGTH REQUIRED'
         MEXIT
.G      $MID   000                                                 SPR2
         B     X005RC12            RETURN AND ISSUE OK MESSAGE  JOR0385
         MEXIT                                                  JOR0385
.H       B     X005RC00            NORMAL RETURN                JOR0385
         MEND
         EJECT
         MACRO
         $COMTBL &DOC=DOC
COMTBL   DSECT
COMTFL   DS    0X                  FLAGS
COMTGRUP DS    A                   ADDR OF COMMAND PROCESSOR
COMTOFF  DS    Y                   LOCATION OF ENTRY OFFSET
COMTVB   DS    CL1                 VERB
COMTVOP  DS    CL1                 FIRST OPERAND
COMTEL   EQU   *-COMTBL            LENGTH OF EACH ENTRY
&SYSECT  CSECT
         MEND
         EJECT
         COPY  $HASPGBL            COPY HASP GLOBALS
JESEX005 $MODULE NOTICE=SP220,                                     J215*
               SYSP=(NOGEN,GEN,NODATA,NOGEN,NOGEN),             JOR0385*
               TITLE='JESEX005 - EXIT 5',                       JOR0385*
               ENVIRON=JES2,                                    JOR0485*
               DCB,               GENERATE MVS DCB DSECT          XCOMM+
               DEB,               GENERATE MVS DEB DSECT          XCOMM+
               RESPA,             GENERATE JES FSI JSPA DSECT     XCOMM+
               SDWA,              GENERATE MVS SDWA DSECT         XCOMM+
               UCB,               GENERATE MVS UCB DSECT          XCOMM+
               $HCT,$PADDR,       GENERATE HASP HCT DSECT         XCOMM+
               $BUFFER,           GENERATE HASP BUFFER DSECT      XCOMM+
               RPL,               REQ'D BY $BUFFER                 J215+
               $JCT,              GENERATE HASP JCT DSECT         XCOMM+
               $ERA,              GENERATE HASP ERA DSECT         XCOMM+
               $SMF,              GENERATE HASP SMF DSECT         XCOMM+
               $DCT,              GENERATE HASP DCT DSECT         XCOMM+
               $JQE,              GENERATE HASP JQE DSECT         XCOMM+
               $JOE,              GENERATE HASP JOE DSECT         XCOMM+
               $PCE,              GENERATE HASP PCE DSECT         XCOMM+
               $COMWORK,          GENERATE HASP COMWORK DSECT     XCOMM+
               $CKPWORK,          GENERATE HASP CKPWORK DSECT     XCOMM+
               $CAT,              GENERATE HASP CAT DSECT         XCOMM+
               $MIT,              GENERATE HASP MIT DSECT         XCOMM+
               $QSE,              GENERATE HASP QSE DSECT         XCOMM+
               $KIT,              GENERATE HASP KIT DSECT         XCOMM+
               $PRE,              GENERATE HASP PRE DSECT         XCOMM+
               $HASPEQU,          GENERATE HASP EQUATES           XCOMM+
               $DAS,              GENERATE HASP DAS DSECT         XCOMM+
               $CWA,              GENERATE HASP CWA DSECT          J215+
               $BPM,              GENERATE HASP BPM DSECT         XCOMM+
               $SVT,$HFAME,       GENERATE HASP SVT DSECT         XCOMM+
               $SCAT,             GENERATE HASP SCAT DSECT        XCOMM+
               $JOT,              GENERATE HASP JOT DSECT         XCOMM+
               $IOT,              GENERATE HASP IOT DSECT         XCOMM+
               $LCK,              GENERATE HASP LCK DSECT         XCOMM+
               $TAB,              GENERATE HASP TAB DSECT         XCOMM+
               $MODMAP,           GENERATE HASP MODMAP DSECT      XCOMM+
               $XECB,             GENERATE HASP XECB DSECT        XCOMM+
               $TQE,              GENERATE HASP TQE DSECT         XCOMM+
               $PDDB,             GENERATE HASP PDDB DSECT        XCOMM+
               $RAT,              GENERATE HASP RAT DSECT       JOR0485+
               $RDT,              GENERATE HASP RAT DSECT       JOR8611+
               $SCANTAB,$SCANWA,  GENERATE HASP RAT DSECT       JOR8611+
               $CMB               GENERATE HASP CMB DSECT         XCOMM
         $COMTBL DOC=NO
         TITLE 'EXIT POINT 5 -- JES2 COMMAND PREPROCESSOR'
***********************************************************************
*                                                                     *
*        JES2 COMMAND PREPROCESSOR                                    *
*                                                                     *
*        REG     ENTRY VALUE              EXIT VALUE                  *
*        ---     -----------              ----------                  *
*                                                                     *
*        R0-R4   N/A                      UNCHANGED                   *
*        R5      ADDR OF CURRENT OPERAND  UNCHANGED                   *
*        R6      4                        UNCHANGED                   *
*        R7      ADDR OF THE LAST OPERAND UNCHANGED                   *
*        R8-R10  N/A                      UNCHANGED                   *
*        R11     ADDR OF HCT              UNCHANGED                   *
*        R12     N/A                      UNCHANGED                   *
*        R13     ADDR OF PCE              UNCHANGED                   *
*        R14     RETURN ADDRESS           UNCHANGED                   *
*        R15     ENTRY POINT ADDRESS      0 AND 4 STANDARD PROCESSING *
*                                         8 - NO STD PROS + $CRET     *
*                                         12- NO STD PROS + $CRET "OK"*
*                                         16- NO STD PROS + $CRET MSG *
*                                                                     *
*        CC      N/A                      N/A                         *
*                                                                     *
***********************************************************************
         SPACE 2
JESEP005 $ENTRY BASE=R9
         EJECT
         $SAVE TRACE=YES
         LR    R9,R15              SET LOCAL BASE
         SPACE 1                                                  XX005
***************************************************************** XX005
*                                                               * XX005
*        INITIALIZE R?? FOR HASPCOMM BASED SERVICE ROUTINES     * XX005
*                                                               * XX005
***************************************************************** XX005
         SPACE 1                                                  XX005
***      L     R??,$COMMXSV       POINT AT COMM SERVICE VECTOR    XX005
***      L     R??,32(,R??)       R?? NO BASE REG FOR COMM SERV   XX005
         SPACE 1                                                  XX005
***************************************************************** XX005
*                                                               * XX005
*        ESTABLISH ESTAE ENVIRONMENT                            * XX005
*                                                               * XX005
***************************************************************** XX005
         SPACE 1                                                  XX005
         L     R14,=A(XCOMRCVR)    R14 => MBX005 RECOVERY EP      XX005
        $ESTAE RECADDR=(R14)       CREATE ESTAE ENVIRONMENT       XX005
         SPACE 1                                                  XX005
***************************************************************** XX005
*                                                               * XX005
*        MOVE PORTION OF THE COMMAND CURRENTLY BEING PROCESSED  * XX005
*        INTO THE PRE (PRETRACK) FOR THE PROCESSOR RECOVERY     * XX005
*        ROUTINE (XCOMRCVR)                                     * XX005
*                                                               * XX005
***************************************************************** XX005
         SPACE 1                                                  XX005
         L     R14,PCEPRE          GET ADDRESS OF PRE             XX005
         USING PRE,R14        ADDRESSABILITY                       J215
         SPACE 1                                                  XX005
         MVC   PRETRACK(CCMDLN),COMMAND     MOVE COMMAND INTO PRE XX005
         MVI   PRELOGLN,CCMDLN     SET LENGTH OF DATA IN PRETRACK XX005+
                                     TO BE RECORDED IN LOGREC     XX005
         SPACE 1                                                  XX005
         DROP  R14                 KILL ADDRESSABILITY            XX005
         EJECT                                                    XX005
***************************************************************** MB026
*                                                               * MB026
*        LOOK UP CMD IN TABLE                                   * MB026
*                                                               * MB026
***************************************************************** MB026
         SPACE 1                                                  MB026
         LA    R4,MBCMDLST         POINT TO FAST LOOKUP TABLE     XX005
         LA    R2,FTBLENTS         SET NBR OF FAST TBLE ENTRIES   XX005
         SPACE 1                                                  XX005
MOMHIT   CLC   0(1,R4),COMVERB     CHECK FOR HIT IN TABLE         XX005
         BH    X005RC00            IF TABLE HIGHER -- NOT OUR CMD XX005
         BE    MOMGETP             IF EQUAL -- GO GET PROCESSOR   XX005
         LA    R4,FTBLENTL(,R4)    POINT TO NEXT TABLE ENTRY      XX005
         BCT   R2,MOMHIT           DECREMENT COUNT & LOOP AGAIN   XX005
         B     X005RC00            IF NOT FOUND -- NOT OUR CMD    XX005
         SPACE 1                                                  XX005
MOMGETP  ICM   R4,B'1111',1(R4)    GET MAIN TABLE ADDRESS          J215
         LA    R2,CTBLENTS         SET NBR OF TABLES ENTRIES      XX005
         SPACE 1                                                  XX005
MOMSRL   CLC   MOMTVB(1,R4),COMVERB  CHECK TO SEE IF VERB IN RANGEXX005
         BH    X005RC00            IF NOT IN RANGE, NOT OUR CMD   XX005
         IC    R14,MOMTVBLN(,R4)   GET VERB LENGTH                XX005
         EX    R14,MOMVCLC         LOOK AT WHOLE VERB             XX005
         BE    MOMFND              BRANCH IF VERB FOUND           XX005
         SPACE 1                                                  XX005
MOMSRC   LA    R4,CTBLENTL(,R4)    POINT TO NEXT ENTRY            XX005
         BCT   R2,MOMSRL           DECREMENT COUNT & LOOP AGAIN   XX005
         B     X005RC00            NOT OURS OR BAD SYNTAX         XX005
         EJECT                                                    XX005
***************************************************************** XX005
*                                                               * XX005
*        COME HERE IF COMMAND ISSUED FROM UNAUTHORIZED CONSOLE  * XX005
*                                                               * XX005
***************************************************************** XX005
         SPACE 1                                                  XX005
MOMBAD   TM    COMFLAG,CMBFLAGU    IS THIS UCM                    XX005
         BZ    MOMBADA             DISPLAY ERROR IF NOT           XX005
         BAL   R3,MOMVCCA          VERIFY CCA (NO RETURN IF BAD)  XX005
         CLI   COMUCMA,0           MLWTO                          XX005
         BZ    MOMBADA             DISPLAY ERROR IF YES           XX005
         MVI   COMLINET,X'80'      SET CONTROL LINE               XX005
        $CWTO  L=L'COMMAND,MSGID=949      WRITE TO OPERATOR       XX005
         MVI   COMLINET,X'20'      SET DATA LINE                  XX005
MOMBADA  MVC   COMMAND(L'MBVINVMB),MBVINVMB MOVE IN INVALID MSG   XX005
         LA    R0,L'MBVINVMB            SETUP LENGTH REG0         XX005
         $STORE R0                      STORE FOR JES2            XX005
         B     X005RC16                 GO TO EXIT ROUTINE        XX005
         EJECT                                                    XX005
***************************************************************** XX005
*                                                               * XX005
*        J2XCOMM COMMON RETURN ROUTINES *                       * XX005
*                                                               * XX005
***************************************************************** XX005
         SPACE 1                                                  XX005
*        +0  --  CONTINUE WITH NORMAL COMMAND PROCESSING          XX005
X005RC00 DS    0H                                                 XX005
         XR    R15,R15             SET RC=0                     JOR0585
         B     ESTAECAN            BRANCH TO COMMON RETURN        XX005
         SPACE 2                                                  XX005
*        +4  --  CONTINUE WITH NORMAL COMMAND PROCESSING          XX005
X005RC04 DS    0H                                                 XX005
         LA    R15,4               SET RC=4                     JOR0585
         B     ESTAECAN            BRANCH TO COMMON RETURN        XX005
         SPACE 2                                                  XX005
*        +8  --  PERFORM $CRET NORMAL RETURN -- (DELETES COMMAND) XX005
X005RC08 DS    0H                                                 XX005
         LA    R15,8               SET RC=8                     JOR0585
         B     ESTAECAN            BRANCH TO COMMON RETURN        XX005
         SPACE 2                                                  XX005
*        +12 --  ISSUE $CRET OK MESSAGE                           XX005
X005RC12 DS    0H                                                 XX005
         LA    R15,12              SET RC=12                    JOR0585
         B     ESTAECAN            BRANCH TO COMMON RETURN        XX005
         SPACE 2                                                  XX005
*        +16 --  ISSUE $CRET MESSAGE  --  TEXT IN 'COMMAND' AREA  XX005
*                                         MESSAGE LENGTH IN R0    XX005
X005RC16 DS    0H                                                 XX005
        $STORE R0                  PRESERVE MSG LENGTH          JOR0585
         LA    R15,16              SET RC=16                    JOR0585
         B     ESTAECAN            BRANCH TO COMMON RETURN        XX005
         SPACE 2                                                  XX005
ESTAECAN DS    0H                  CANCEL J2XCOMM ESTAE ENVIRON   XX005
         ICM   R3,B'1111',PCEPRE   GET ADDRESS OF PRE             XX005
         BZ    X005RTN             IF NONE, SKIP ESTAE CANCEL     XX005
         ST    R15,PCEUSER0       SAVE RETURN CODE              JOR0585
        $ESTAE CANCEL              CANCEL ESTAE ENVIRONMENT       XX005
         L     R15,PCEUSER0       RESTORE RETURN CODE           JOR0585
X005RTN  DS    0H                                                 XX005
        $RETURN RC=(R15),TRACE=YES RETURN TO MAINLINE HASPCOMM    XX005
         EJECT                                                    XX005
***************************************************************** XX005
*                                                               * XX005
*        COMMAND FOUND IN TABLE -- CHECK CONSOLE AUTHORITY      * XX005
*                                                               * XX005
***************************************************************** XX005
         SPACE 1                                                  XX005
MOMFND   IC    R1,MOMTFL(,R4)      PICK UP RESTRICTION BITS       XX005
         N     R1,=A(X'F')         PURIFY                         XX005
         EX    R1,MOMTMI           TEST FOR AUTHORIZED CONSOLE    XX005
         BNZ   MOMBAD              BR IF UNAUTHORIZED CONSOLE     XX005
         SPACE 1                                                  XX005
***************************************************************** XX005
*                                                               * XX005
*        CHECK FOR AUTOMATIC REDIRECTION OF RESPONSES           * XX005
*                                                               * XX005
***************************************************************** XX005
         SPACE 1                                                  XX005
         TM    COMFLAG,CMBFLAGU    IS THIS UCM...                 XX005
         BZ    MOMGOOD             IF NOT SKIP REDIRECTION        XX005
         SPACE 1                                                  XX005
         TM    MBLFLG,MBLFLGC+MBLFLGR CONSOLE SET OR REMOTE SYSTEMXX005
         BNZ   MOMRPT              SKIP AUTOMATIC L=CCA           XX005
         SPACE 1                                                  XX005
         SR    R1,R1               ZERO WORK                      XX005
         IC    R1,MOMTFL(0,R4)     PICK UP REDIRECT OFFSET        XX005
         SRA   R1,4                ALIGN TO LOW HEX DIGIT         XX005
         BZ    MOMRPT              IF ZERO NO REDIRECTION         XX005
         SPACE 1                                                  XX005
         BCTR  R1,0                REDUCE BY 1                    XX005
         AR    R1,R1               DOUBLE                         XX005
         SR    R2,R2               ZERO WORK                      XX005
         IC    R2,COMUCM           PICK UP CURRENT UCM            XX005
         AIF   ('&FMID' EQ 'HJE2330 ').SP134A,                     J134*
               ('&FMID' EQ 'HJE2215 ').SP134A,                     J215*
               ('&FMID' EQ 'HJE2221 ').SP134A                      J220
         CH    R2,COMCONNO         CHECK FOR TOO HIGH             XX005
         BH    MOMRPT              FORGET AUTOMATIC IF TOO HIGH   XX005
         SPACE 1                                                  XX005
         L     R14,COMEXTEN        POINT TO EXTENDED AREA         XX005
         USING CWA,R14         AND ESTABLISH ADDRESSABILITY        J215
         SPACE 1                                                  XX005
         AGO   .CONTA                                             XX005
.SP134A  ANOP                                                     XX005
         SPACE 1                                                  XX005
         L     R14,$COMEXTN        POINT TO EXTENDED AREA    @134 XX005
         USING CWA,R14        ADDRESSABILITY                       J215
         SPACE 1                                                  XX005
         CH    R2,CWAOCON          CHECK FOR TOO HIGH              J215
         BH    MOMRPT              FORGET AUTOMATIC IF TOO HIGH   XX005
.CONTA   ANOP                                                     XX005
         MH    R2,CWALCON          MULTIPLY BY LENGTH DIMENSION    J215
         AR    R1,R2               COMBINE OFFSETS                XX005
         LA    R1,CWARESP-CWACONL(R1) POINT TO ELEMENT             J215
         MVC   COMUCM,CWACON(R1)   INSERT NEW CONSOLE ID           J215
         TM    MBLFLG,MBLFLGA      HAS AREA BEEN SET              XX005
         BO    MOMRPT              SKIP AUTOMATIC IF YES          XX005
         MVC   COMUCMA,CWACONA(R1) SET NEW AREA                    J215
         SPACE 1                                                  XX005
         DROP  R14                                                XX005
         SPACE 1                                                  XX005
MOMRPT   BAL   R3,MOMVCCA          VERIFY CCA (NO RETURN IF BAD)  XX005
         CLI   COMUCMA,0           TEST FOR MLWTO                 XX005
         BZ    MOMGOOD              IF NOT, SKIP                  XX005
         MVI   COMLINET,X'80'      SET CONTROL LINE               XX005
         SPACE 1                                                  XX005
        $CWTO  L=L'COMMAND,MSGID=936      WRITE TO OPERATOR       XX005
         SPACE 1                                                  XX005
         MVI   COMLINET,X'20'      SET DATA LINE                  XX005
         EJECT                                                    XX005
***************************************************************** XX005
*                                                               * XX005
*    COMMAND FOUND CONTINUE TO PROCESS IT                       * XX005
*                                                               * XX005
***************************************************************** XX005
         SPACE 1                                                  XX005
MOMGOOD  DS    0H                                                 XX005
         L     R8,MOMTGRP(,R4)     GET ADDRESS OF GROUP PROCESSOR XX005
         LH    R1,MOMTOFF(,R4)     GET OFFSET OF SUBPROCESSSOR    XX005
         ALR   R1,R8               COMPUTE ADDR OF SUBPROCESSOR   XX005
         BR    R8                  GO TO GROUP PROCESSOR          XX005
         SPACE 1                                                  XX005
***************************************************************** XX005
*                                                               * XX005
*        SUBROUTINE TO VERIFY CONSOLE/AREA                      * XX005
*                                                               * XX005
***************************************************************** XX005
         SPACE 1                                                  XX005
MOMVCCA  TM    MBLFLG,MBLFLGR      REMOTE SYSTEM UCM              XX005
         BOR   R3                  UCM AND AREA OK                XX005
         SPACE 1                                                  XX005
         AIF   ('&FMID' EQ 'HJE2330 ').SP134B,                     J134*
               ('&FMID' EQ 'HJE2215 ').SP134B,                     J215*
               ('&FMID' EQ 'HJE2221 ').SP134B                      J220
         L     R2,COMEXTEN         POINT TO EXTENDED WORK AREA    XX005
         AGO   .CONTB                                             XX005
.SP134B  ANOP                                                     XX005
         L     R2,$COMEXTN         POINT TO EXTENDED AREA    @134 XX005
.CONTB   ANOP                                                     XX005
         USING CWA,R2          AND ESTABLISH ADDRESSABILITY        J215
         SPACE 1                                                  XX005
         MVC   XASCID(1),COMUCM   SET UCM                         XX005
         MVC   XASDID(1),COMUCMA  SET AREA                        XX005
         CLI   XASDID,0           ZERO AREA                       XX005
         BNZ   MOMSSAOP           SKIP NSI                        XX005
         MVI   XASDID,C'Z'        FORCE AREA Z                    XX005
MOMSSAOP MVC   XAU(1),COMUCM      TELL OS SOURCE IS SAME AS OUTPUTXX005
         MVI   XAN,X'22'          SET ID FOR VERIFIER             XX005
         MODESET EXTKEY=ZERO      GET KEY 0                       XX005
         L     R15,CWA7603D       POINT TO OS VERIFICATION ROUTIN  J215
         BALR  R14,R15            ENTER IT                        XX005
         MODESET EXTKEY=HASP      GET KEY 1                       XX005
         CH    R15,=H'4'          CHECK FOR SERIOUS ERROR         XX005
         BNHR  R3                 SKIP NEXT IF CONSOLE/AREA OK    XX005
         SLR   R10,R10            ZERO WORK                       XX005
         ICM   R10,B'0101',COMUCM+(COMUCMA-COMUCMA) PICK UP UCM IDXX005
*                                                    AND AREA     XX005
         MVI   COMUCMA,0          FORCE NO MLWTO (NO PREVIOUS LINEXX005
         CH    R15,=H'12'         IS CONSOLE DOWN                 XX005
         BNE   *+16               DO NOT SET LOGICAL CONSOLE      XX005
         MVC   COMFLAG(4),MOWTOL  DESTROY APPARENT SOURCE INFO    XX005
         MVC   COMOUT,MOWTOL+(COMOUT-COMFLAG) OMITTING CNTL FIELD XX005
         EJECT                                                    XX005
        $CWTO  L=L'COMMAND,MSGID=936      WRITE TO OPERATOR       XX005
         SPACE 1                                                  XX005
         MVC   COMMAND(MBVINVL),MBVINV MOVE DIAGNOSTIC TEXT       XX005
         STC   R10,MBVINVA         SET AREA                       XX005
         SRL   R10,8               ALIGN CONSOLE ID               XX005
         $CFCVE VALUE=(R10)        CONVERT TO EBCDIC              XX005
         SPACE 1                                                  XX005