//C7BMCS   JOB (M096,0616,99,9999),'SYSTEMS*BRIAN',NOTIFY=C7BRIAN,
//       MSGCLASS=T,CLASS=A
//  EXEC ASMFCL,
//     MAC1='SYS1.AMODGEN',
//     PARM.ASM='OBJ',
//     PARM.LKED='NCAL,LET,AC=1'
DIDOCS   TITLE 'D I D O C S - SIMULATE OS CONSOLE FOR TSO USER '
*        AUTOUPDATE MODE WORKS WITH SNA AND NON SNA SYSTEMS
*
*
*        NEED AMODGEN FOR IEECUCM AND CVT.
*        REAL CODE STARTS ABOUT 694 LINES DOWN FROM HERE
         MACRO
&NAME    PGM   &BASE=R12,&SAVE=$$SAVE,&START=$$START,&EOJ=$$EOJ,&RC=16
&NAME    CSECT
         B     14(0,R15)           BRANCH AROUND PROGRAM ID.
         DC    AL1(8)              CSECT NAME LENGTH.
         DC    CL8'&NAME'          CSECT IDENTIFIER.
         DC    X'FF'               FILLER.
         STM   R14,R12,12(R13)     STORE THE REGISTERS.
         LR    &BASE,R15           ESTABLISH ADDRESSABILITY.
         USING &NAME,&BASE         TELL ASSEMBLER ABOUT BASE REGISTER.
R0       EQU   0                   REGISTER 0.
R1       EQU   1                   REGISTER 1.
R2       EQU   2                   REGISTER 2.
R3       EQU   3                   REGISTER 3.
R4       EQU   4                   REGISTER 4.
R5       EQU   5                   REGISTER 5.
R6       EQU   6                   REGISTER 6.
R7       EQU   7                   REGISTER 7.
R8       EQU   8                   REGISTER 8.
R9       EQU   9                   REGISTER 9.
R10      EQU   10                  REGISTER 10.
R11      EQU   11                  REGISTER 11.
R12      EQU   12                  REGISTER 12.
R13      EQU   13                  REGISTER 13.
R14      EQU   14                  REGISTER 14.
R15      EQU   15                  REGISTER 15.
         LA    R15,&SAVE           ADDRESS OF OUR SAVE AREA.
         ST    R13,4(R15)          BACKWARD SAVE AREA CHAIN.
         ST    R15,8(R13)          FORWARD SAVE AREA CHAIN.
         LR    R13,R15             POINT R13 TO CURRENT SAVE AREA.
         B     &START              BRANCH TO ENTRY CODE.
&EOJ     CH    R15,$$RC            IS RETURN CODE HIGHER THAN &RC?
         BNH   *+6                 YES - LETS ZERO R15.
         SR    R15,R15             ZERO OUT REGISTER 15.
         L     R13,&SAVE+4         POINT R13 TO PREVIOUS SAVE AREA.
         L     R14,12(R13)         RESTORE REGISTER 14.
         LM    R0,R12,20(R13)      RESTORE THE REGISTERS.
         BR    R14                 RETURN TO OS.
&SAVE    DS    18F                 OUR SAVE AREA.
$$RC     DC    H'&RC'              RETURN CODE.
$$START  DS    0H                  DEFAULT ENTRY POINT.
         MEND
         MACRO
         IEERDCM
*     01/15/73          LEVEL=05                              MB Y02958
DCMTSRT  DSECT DCMTSPTR
DCMADTRN DS    A                   POINTER TO PAGABLE DCM
         DS    CL1                 RESERVED
DCMRFLGS DS    BL1                 FLAGS
DCMDOM   EQU   X'10'               DOM MUST BE TRIED
DCMNIPP  EQU   X'08'               DCM WAS USED BY NIP
DCMLEN   DS    H                   LENGTH OF PAGABLE DCM
DCMADKP  DS    A                   ADDRESS OF ROUTED K COMMAND
*                                   PARAMETER LIST
DCMTOPAR DS    CL1                 TOP DISPLAY AREA DEFINED
DCMTOPDS DS    CL1                 TOP DISPLAY ON SCREEN
         DS    BL1                 RESERVED
DCMDEVTY DS    BL1                 DEVICE TYPE FLAGS
DCMTY60  EQU   X'80'               USABLE FOR SD
DCMTY50  EQU   X'40'               NOT USABLE FOR SD
DCMADSDS DS    A                   POINTER TO FIRST SDS SUPPORT AREA
DCMRMS   DS    CL1                 NUMBER OF CCWS TO WRITE
DCMADRMS DS    AL3                 POINTER TO RMS CCWS
DCMWLAST DS    A                   PT CON Q ENTRY LAST OUT (O-O-L)
DCMRMSAL DS    H                   NUMBER LINES IN MSG AREA
DCMDOMKY DS    H                   CONSOLE DOM ELEMENT        MC XM5812
DCMSUBAD DS    A                   POINTER TO SUB CONTROL BLOCK
DCMADMFK DS    A                   POINTER TO RESIDENT PFK AREA
DCMINTVL DS    H                   INTERVAL FOR THIS DCM
DCMTMCTR DS    H                   TIME COUNTER FOR THIS DCM
DCMR2FLG DS    BL1                 TIMER FLAGS
DCMRXSFL EQU   X'80'               FULL SCREEN FLAG
DCMRXUNV EQU   X'40'               UNVIEWABLE MESSAGE DISPLAYED
DCMRXTMR EQU   X'20'               TIMER FLAG
DCMRXRLL EQU   X'10'               READY TO ROLL
DCMRXDEL EQU   X'08'               PENDING DELETE REQUEST
DCMRXTIM EQU   X'02'               TIMER ELAPSED FOR THIS DISPLAY
DCMR3FLG DS    BL1                 MISC FLAGS
DCMSTSWT EQU   X'80'               CHANGING STATUS OF OUTPUT ONLY CON
DCMKVIP  EQU   X'40'               ENTRY FOR K VARY COMMAND
DCMCLPR  EQU   X'20'               CLOSE IN PROCESS
DCMRXSCN EQU   X'10'               ASY ERROR MESSAGE ON SCREEN
DCMR3PKA EQU   X'08'               DA I/O COMPLETE
DCMRXHMT EQU   X'04'               FULL SCREEN SIMULATED      MC YM4102
         DS    H                   RESERVED
DCMRQDEL DS    A                   DELETE REQUEST BUFFER
         DS    A                   DELETE REQUEST BUFFER
DCMMSGSV DS    A                   POINTER TO SAVED NIP MESSAGES
DCMPACB  EQU   *                   SACB PREFIX
DCMPLN   DS    FL2                 SYSGEN LENGTH OF AREA
DCMPLNPR DS    H                   LENGTH OF SACB PREFIX-IN BYTES
DCMPRSZ  EQU   *-DCMPACB           SIZE OF PREFIX
DCMACB   EQU   *                   SACB
DCMACBNX DS    A                   POINTER TO NEXT SACB
DCMAID   DS    CL1                 AREA ID
DCMASACB DS    BL1                 SACB FLAGS
DCMAUSE  EQU   X'80'               AREA PRESENTLY DEFINED     MB Y02958
*    IF DCMAUSE IS OFF, A SYSGEND AREA HAS BEEN FREED E.G. K A,NONE
DCMAGM   EQU   X'40'               GETMAINED SACB
DCMALN   DS    FL2                 LENGTH OF AREA
DCMATOP  DS    FL1                 TOP ROW OF AREA
DCMACLR  EQU   *                   REINITIALIZED PORTION      MB Y02958
DCMAROW  DS    FL1                 ROW TO BE WRITTEN NEXT
DCMAFR   DS    H                   FRAME ON SCREEN
DCMAMJWQ DS    A                   POINTER TO CON Q ENTRY FOR MAJOR
DCMAMIN  DS    A                   POINTER TO MINOR WQE
DCMATIME DS    F                   TIME CONTROL LINE WAS WRITTEN
DCMAMT   DS    XL2                 RESERVED                   MB Y02958
DCMAFLG1 DS    XL1                 AREA FLAGS1
DCMADISP EQU   X'40'               DISPLAY IN AREA
DCMADEND EQU   X'20'               END OF DISPLAY ON SCREEN
DCMAFRPR EQU   X'10'               FRAMING IN PROGRESS
DCMAFULL EQU   X'08'               FRAME FULL
DCMABL   EQU   X'04'               BLANKING TO BE DONE
DCMAFLG2 DS    XL1                 AREA FLAGS 2
DCMALMIN EQU   X'80'               SAVED POINTER TO LAST MINOR OUTPUT
DCMAWCON EQU   X'40'               WRITE CONTROL LINE
DCMARCON EQU   X'20'               REWRITE CONTROL LINE
DCMAMJFR EQU   X'10'               MAJOR WQE HAS BEEN FOUND
DCMADFLG DS    XL1                 DYNAMIC DISPLAY FLAGS      MB Y02958
DCMADD   EQU   X'80'               TRACK IN AREA              MB Y02958
DCMAHOLD EQU   X'40'               TRACK IN HOLD MODE         MB Y02958
DCMACSIB EQU   X'20'               TRACK WITH CONTINUATION LINE IN     *
                                   SCREEN IMAGE BUFFER        MB Y02958
DCMATRCK DS    X                   TRACK REQUEST INDICATORS   MB Y02958
DCMATJOB EQU   X'80'               TRACK JOBS                 MB Y02958
DCMATJBL EQU   X'40'               TRACK JOBS,LIST            MB Y02958
DCMATTS  EQU   X'08'               TRACK TS                   MB Y02958
DCMATTSL EQU   X'04'               TRACK TS,LIST              MB Y02958
DCMATA   EQU   X'88'               TRACK A                    MB Y02958
DCMATAL  EQU   X'44'               TRACK A,LIST               MB Y02958
DCMAUTME DS    XL2                 UTME=NNN VALUE             MB Y02958
DCMATECB DS    F                   TRACK CANCEL ECB ADDRESS   MB Y02958
DCMAPAD  DS    F                   RESERVED                   MB Y02958
DCMACBND EQU   *                   SACB END
DCMCLRLN EQU   *-DCMACLR           LENGTH FOR REINITIALIZING  MB Y02958
DCMACBSZ EQU   *-DCMACB            SACB SIZE
DCMREND  DS    0C                  END OF DCM
         MEND  , */
         MACRO
         IEETDCM
*     12/15/72          LEVEL=04
* * * * * * * * * * * * * * * * * * * * * * * * * * * * * * * * * * * *
*                                                                     *
*                         WORK AND SAVE AREAS                         *
*                                                                     *
* * * * * * * * * * * * * * * * * * * * * * * * * * * * * * * * * * * *
DCMSTRT  DSECT DCMSTPTR
         DS    0F                  FULL WORD ALIGNMENT
         DS    H                   DCM LENGTH
         DS    H                   PADDING
         SPACE 4
DCMFLG1  DS    BL1                 DCM AREA INDICATORS
         SPACE 2
DCMOUTPT EQU   X'02'               DCM UPDATED FOR OUTPUT ONLY
         SPACE 4
DCMATI   DC    X'00'               SAVED UCB ATTN INDEX      MC SA55058
         DC    AL2(0)              RESERVED                  MC SA55058
         SPACE 2
DCMWTINT DS    A                   DCMWTINT INITIAL VALUE
DCMLNCNT DS    H                   NUMBER OF LINES TO BLANK  MC SA53462
DCMLNNUM DC    X'00'               FIRST LINE TO BLANK       MC SA53462
         DC    X'00'               RESERVED                  MC SA53462
DCMPACK  DS    F                   AREA TO PLACE NUMBER FOR PACKING
DCMCVBIN DS    F                   AREA FOR CONVERSION TO BINARY
         SPACE 2
DCMTIMES DS    BL1                 TIME RTNS INDICATOR BYTE
         SPACE 2
DCMTIMER EQU   X'80'               TIME ELAPSED FOR THIS DISPLAY
DCMOPTTI EQU   X'40'               OPTIONS TO TI RTN
DCMOTTMM EQU   X'10'               OPTIONS OR TI RTNS TO MSG MODULE
DCMTASYN EQU   X'04'               TIMER SET FOR ASYNC ERROR MSG
DCMOCTTI EQU   X'02'               OPEN-CLOSE TO TI RTN
DCMRMTTI EQU   X'01'               ROLL MODE TO TIMER ROUTINE
         EJECT
         DS    XL1                 UNUSED
         SPACE 2
DCMELGN  DS    H                   ENTRY AREA LAST CHARACTER POINTER
         SPACE 2
DCMBUFAD DS    A                   POINTER TO BUFFER ADDRESS TABLE
DCMDOMPK DS    A                   ADDRESS OF FIRST DOM NUMBER
DCMAMTAB DS    A                   ADDRESS OF FIRST SCT ENTRY
DCMADSEC DS    A                   ADDRESS OF FIRST SSCT ENTRY
DCMADDRL DS    A                   ADDRESS OF LAST SCT ENTRY
DCMASCRN DS    A                   POINTER TO SCREEN IMAGE BUFFER
DCMLSCRN DS    A                   POINTER TO LAST BUFFER LINE
DCMWTBUF DS    A                   SCREEN LENGTH POINTER
DCMAINS  DS    A                   POINTER TO INSTRUCTION LINE
DCMAENTR DS    A                   POINTER TO ENTRY AREA
DCMAWARN DS    A                   POINTER TO WARNING LINE
DCMADCHP DS    A                   ADDRESS OF CHANNEL PROGRAM AREA
DCMPFKLN DS    A                   POINTER TO PFK LINE
DCMCXSVE DS    F                   CXSA SAVE AREA
DCMADOPN DS    A                   ADDRESS OF COMMAND OPERAND
DCMDSAV  DS    5F                  SAVE AND WORK AREA
         SPACE 2
*           INPUT BUFFER FOR ISSUING SVC 34 AND SVC 35                *
*           FIELDS DCMWQEXP THROUGH DCMINPUT MUST REMAIN IN ORDER     *
DCMWQEXP DS    0F                  ENSURE FULL WORD BOUNDARY
DCMINLGN DS    H                   FIELD FOR INPUT LENGTH
DCMMCSFL DS    H                   MCS FLAGS FIELD
DCMINPUT DS    32F                 INPUT MESSAGE TEXT
         SPACE 2
DCMLGNTH DS    H                   LENGTH OF A LINE
DCMBAINC DS    H                   ADDRESS TO INSERT CURSOR
DCMIRCTR DS    H                   INTERVENTION REQ'D MSG COUNTER
DCMBADLN DS    H                   BUFFER ADDR TO BEGIN MSG WRITE
DCMBYTCT DS    H                   NUMBER OF BYTES TO WRITE
DCMADNUM DS    H                   NEXT LINE NUMBER
DCMAXLGN DS    H                   MAXIMUM LINE LENGTH
DCMMSGAL DS    H                   NUMBER OF LINES IN MESSAGE AREA
DCMRMINC DS    H                   INCREMENT INTO RMI
DCMSCTCN DS    H                   LENGTH OF ONE SCT ENTRY
DCMCORLN DS    H                   LENGTH OF DCM LINE IN CORE
         DS    H                   TIME COUNTER
DCMPFKNM DS    XL1                 NUMBER OF KEY BEING PROCESSED
DCMPFKKN DS    XL1                 LIST KEY NUMBER
         EJECT
DCMDEL   DS    CL2                 DEL VALUE
DCMCON   DS    CL1                 CON VALUE
DCMSEG   DS    FL1                 SEG VALUE
DCMDL    DS    FL1                 DISPLAY AREA OPTION
DCMRNUM  DS    FL1                 ROLL NUMBER VALUE
DCMRTME  DS    H                   ROLL TIME VALUE
         SPACE 2
*  DEFAULT VALUES FOR OPTIONS
DCMSEGDF DS    FL1                 SEG DEFAULT
DCMRNUMD DS    FL1                 RNUM DEFAULT
DCMRTMED DS    H                   RTME DEFAULT
         SPACE 2
DCMASKEN DS    XL1                 ENTER MASK
DCMASKCN DS    XL1                 CANCEL MASK
DCMASKCR DS    XL1                 CURSOR MASK
DCMASKLP DS    XL1                 LIGHT PEN MASK
DCMASKPF DS    XL1                 PFK MASK
         EJECT
* * * * * * * * * * * * * * * * * * * * * * * * * * * * * * * * * * * *
*                                                                     *
*                         COMMUNICATIONS AREA                         *
*                                                                     *
* * * * * * * * * * * * * * * * * * * * * * * * * * * * * * * * * * * *
         SPACE 2
DCMOPTST DS    BL1                 STATUS OF SCREEN CONTROL OPTIONS
         SPACE 2
DCMOPTVR EQU   X'80'               DELETE VERIFICATION  CON=(Y=1,N=0)
DCMOPTAD EQU   X'40'               AUTOMATIC DELETION   DEL=(Y=1,N=0)
DCMOPTSG EQU   X'20'               DEFAULT SEGMENT SPECIFIED  SEG=(0=0)
DCMOPRLL EQU   X'10'               ROLL MODE  (Y=1,N=0)
         SPACE 4
DCMCS    DS    BL1                 OPEN/CLOSE REQUEST
         SPACE 2
DCMCSC   EQU   X'80'               CLOSE REQUEST
DCMCSO   EQU   X'40'               OPEN REQUEST
         SPACE 4
DCMUTILT DS    BL1                 RESERVED
         SPACE 2
DCMUTILA EQU   X'80'               THESE BITS ARE
DCMUTILB EQU   X'40'                 INITIALIZED AND USED
DCMUTILC EQU   X'20'                 SOLELY WITHIN
DCMUTILD EQU   X'10'                 EACH MODULE
DCMUTILE EQU   X'08'               THEY ARE NEVER
DCMUTILF EQU   X'04'               USED FOR INTERFACE
DCMTEST1 EQU   X'02'               FOR TESTING
DCMTEST2 EQU   X'01'               FOR TESTING
         SPACE 4
DCMDSTAT DS    BL1                 CURRENT DISPLAY STATUS
         SPACE 2
DCMDSTNM EQU   X'20'               MESSAGES ARE NUMBERED
DCMDSTNH EQU   X'10'               MSGS NUMBERED - HOLD OPTION
DCMDSINR EQU   X'08'               INTERVENTION REQ'D DELETION TRIED
DCMDSAUT EQU   X'04'               AUTOMATIC DELETION TRIED
         SPACE 4
DCMMCSST DS    BL1                 MCS INTERFACE BYTE
         SPACE 2
DCMDUSE  EQU   X'80'               OUR SUPPORT IN CONTROL
DCMOOMSS EQU   X'04'               MESSAGE STREAM ENTRY
DCMOOSDS EQU   X'01'               STATUS DISPLAY ENTRY
         SPACE 4
DCMIOUNQ DS    BL1                 UNIQUE IO BYTE
         SPACE 2
*  UNIQUE INTERFACE BITS FOR 2260
DCMIO226 EQU   X'80'               RMI PERFORMED
DCMRPCUR EQU   X'40'               ADVANCE CURSOR TO BLANKS
DCMFRSCN EQU   X'20'               PUT OUTPUT IN HOLD MODE
*  UNIQUE INTERFACE BITS FOR 2250
DCMRDARM EQU   X'10'               PERFORM READ AFTER RMI
DCMW2250 EQU   X'08'               DEVICE IS 2250
DCMINNOR EQU   X'04'               NORMAL INSTRUCTION LINE
DCMINERR EQU   X'02'               ERROR INSTRUCTION LINE
         SPACE 4
DCMIOCM1 DS    BL1                 IO COMMUNICATIONS BYTE 1
         SPACE 2
DCMDORMI EQU   X'80'               ISSUE RMI
DCMSOUND EQU   X'40'               SOUND ALARM
DCMWRWRN EQU   X'20'               WRITE WARNING LINE
DCMWRMSG EQU   X'10'               WRITE FULL MESSAGE AREA
DCMWRPAR EQU   X'08'               WRITE PARTIAL MESSAGE AREA
DCMWRINS EQU   X'04'               WRITE INSTRUCTION LINE
DCMWRENT EQU   X'02'               WRITE ENTRY AREA
DCMINSC  EQU   X'01'               INSERT CURSOR
         EJECT
DCMIOCM2 DS    BL1                 IO COMMUNICATIONS BYTE 2
         SPACE 2
DCMBLENT EQU   X'80'               BLANK ENTRY AREA
DCMBLWRL EQU   X'40'               BLANK LEFT HALF WARNING LINE
DCMBLWRR EQU   X'20'               BLANK RIGHT HALF WARNING LINE
DCMINSSH EQU   X'10'               INIT AND SHIFT INSTRUCTION LINE
DCMWINFD EQU   X'08'               WRITE INFORMATIONAL DISPLAY
DCMERASE EQU   X'04'               PERFORM ERASE
DCMIOCRD EQU   X'02'               PERFORM READ (2250,22DOC)
DCMWRASY EQU   X'01'               WRITE ASYNC ERROR MSG TO MID-SCREEN
         SPACE 4
DCMIOCM3 DS    BL1                 IO COMMUNICATIONS BYTE 3
         SPACE 2
DCMOPRMI EQU   X'80'               RMI AFTER OPEN TO UNLOCK KEYBOARD
DCMSSRG  EQU   X'40'               SUPPRESS START REGENERATION
DCMWRPFK EQU   X'10'               DCM WRITE PFK AREA
DCMPFKAT EQU   X'08'               PFK ATTENTION
DCMRDPFK EQU   X'04'               PFK AREA READ
DCMACPFK EQU   X'02'               TURN ACTIVE PFK LIGHTS ON
DCMLTPFK EQU   X'01'               TURN ALL PFK LIGHTS ON
         SPACE 4
DCMLINEN DS    XL1                 LINE NUMBER TO BEGIN WRITE
         SPACE 2
DCMCULNO DS    XL1                 LINE IN ENTRY AREA TO INSERT CURSOR
         SPACE 2
DCMPOSCU DS    XL1                 POSITION TO INSERT CURSOR
         SPACE 4
DCMASYNC DS    BL1                 ASYN ERROR COMMUNICATIONS/RETRY BYTE
         SPACE 2
DCMASDA  EQU   X'40'               RETRY BIT
DCMASIN  EQU   X'20'               RETRY BIT
DCMASBA  EQU   X'10'               RETRY BIT
DCMASLOG EQU   X'08'               LOG ASYNCHRONOUS ERROR
         EJECT
DCMCOM1  DS    BL1                 COMMUNICATIONS BYTE
         SPACE 2
DCMLPENT EQU   X'80'               ENTER BY LP OR CURSOR
DCMIOPRD EQU   X'40'               READ PERFORMED
DCMCOMRM EQU   X'20'               RMI PERFORMED
DCMCOMAU EQU   X'10'               PERFORM AUTO DELETE
DCMCOMRD EQU   X'08'               PERFORM REGULAR DELETE
DCMCOMNM EQU   X'04'               NUMBER MESSAGES
DCMCANCL EQU   X'01'               INDICATE CANCEL TO COMMAND ROUTINE
         SPACE 3
DCMCOM2  DS    BL1                 COMMUNICATIONS BYTE
         SPACE 2
DCMCM2I  EQU   X'80'               INPUT TO BE PROCESSED
DCMSPLIT EQU   X'40'               MSG TO BE SPLIT
DCMCOMAR EQU   X'20'               ACCEPTED REPLY
DCMERPF  EQU   X'08'               ERASE PERF-PROC CAN NOW CLOSE DEVICE
DCMCMIN5 EQU   X'04'               RETURN TO INTER. 5 FOR BLNK
DCMCBLNK EQU   X'02'               BLANKING REQUIRED
DCMAE    EQU   X'01'               CLEANUP FOR ASY ERROR
         SPACE 3
DCMCOM3  DS    BL1                 COMMUNICATIONS BYTE
         SPACE 2
DCMCDSP3 EQU   X'80'               DISPLAY 3 COMPLETED WORK
DCMRTPFK EQU   X'40'               RETURN TO PFK ROUTINE
DCMVLPFK EQU   X'20'               VERIFYING LAST COMMAND
DCMXINT1 EQU   X'10'               ENTRY FOR INTERFACE 1 ROUTINE
DCMOLUNV EQU   X'08'               O-O-L MSG CAUSED UNVIEW. MSG.
DCMPFKWR EQU   X'04'               WRITE PFK UPDATES TO LIB
DCMOLHLD EQU   X'02'               OUT OF LINE MESSAGES HELD  MB Y02958
DCMCMIN7 EQU   X'01'               RETURN TO INTER. 7 FOR BLANKING
         SPACE 3
DCMCMSG1 DS    BL1                 MSG MODULE COMMUNICATIONS BYTE 1
         SPACE 2
DCMMSGWT EQU   X'80'               MOVE IN MESSAGE WAITING
DCMUNMSG EQU   X'40'               MOVE IN UNVIEWABLE MESSAGE
DCMSTEX  EQU   X'20'               MOVE IN STATUS EXISTS
DCMCHOPT EQU   X'10'               MOVE IN CHANGE OPTIONS
DCMELONG EQU   X'08'               MOVE IN ENTRY TOO LONG
DCMWRCDL EQU   X'04'               MOVE IN CON=N,DEL=Y
DCMDELNT EQU   X'02'               MOVE IN DEL UNCHANGED, NO TIMER
         EJECT
DCMCMSG2 DS    BL1                 MSG MODULE COMMUNICATIONS BYTE 2
         SPACE 2
DCMDLREQ EQU   X'80'               MOVE IN DELETION REQUESTED
DCMRQINC EQU   X'40'               MOVE IN REQUEST INCONSISTENT
DCMMSGCR EQU   X'20'               MOVE IN INVALID CURSOR OPERATION
DCMINVOP EQU   X'10'               MOVE IN INVALID OPERAND
DCMCILLP EQU   X'08'               MOVE IN ILLEGAL LP OPERATION
DCMDELRI EQU   X'04'               MOVE IN DELETE REQUEST INCONSISTANT
DCMASYRT EQU   X'02'               MOVE IN ASYN ERROR RETRYABLE
DCMASYCD EQU   X'01'               MOVE IN ASYN ERROR MAYBE RETRYABLE
         SPACE 4
DCMCMSG3 DS    BL1                 MSG MODULE COMMUNICATIONS BYTE 3
         SPACE 2
DCMCMRLL EQU   X'80'               MOVE IN ROLL MODE MESSAGE
DCMCDLR1 EQU   X'40'               NO DELETABLE MESSAGES
DCMCDLR2 EQU   X'20'               INVALID RANGE
DCMCDLR3 EQU   X'10'               SEG EQU TO ZERO
DCMCDLR4 EQU   X'08'               DISPLAY NOT ON SCREEN
DCMCDLR5 EQU   X'04'               INVALID OPERAND
DCMDTBSY EQU   X'01'               COMMAND REJECTED - TASK BUSY
         SPACE 4
DCMCMSG4 DS    BL1                 MSG MODULE COMMUNICATIONS BYTE 4
         SPACE 2
DCMPFKNA EQU   X'80'               MOVE IN PFK NOT ALLOCATED FOR
DCMPFKND EQU   X'40'               MOVE IN PFK NOT DEFINED
DCMPFKNO EQU   X'20'               MOVE IN NO PFK ALLOCATION
DCMPFKIP EQU   X'10'               MOVE IN PFK IN PROCESS
         SPACE 4
DCMSVC34 DS    BL1                 SVC 34 COMMUNICATION BYTE
         SPACE 2
DCMMYCMD EQU   X'80'               COMMAND TO BE HANDLED BY THIS CONS
DCMINVLD EQU   X'40'               INVALID K COMMAND
DCMTYPE1 EQU   X'20'               K COMMAND IS NOT ROUTABLE
         SPACE 2
DCMPAD   DS    X                   RESERVED COMMUNICATION BYTE   Y02958
DCMIONDX DS    X                   INDEX FOR SELECTING THE    MB Y02958
*                                  APPROPRIATE I/O ROUTINE    MB Y02958
*                                  X'04' - M/165 CONSOLE      MB Y02958
*                                  X'08' - 2250               MB Y02958
*                                  X'0C' - 2260               MB Y02958
*                                  X'10' - 3277               MB Y02958
DCMTEST  DS    H                   RESERVED FOR TESTING       MB Y02958
         EJECT
**                                                                   **
*                        MODULE ADDRESSES                             *
**                                                                   **
         SPACE 1                                              MB Y02958
DCMIORTN DS    F                   APPROIATE I/O ROUTINE      MB Y02958
*                  NAME   TRACE ID   DESCRIPTION              MB Y02958
*                 IEECVETH    EH   3066(M/165) IO ROUTINE     MB Y02958
*                 IEECVETP    EP   2250 IO ROUTINE            MB Y02958
*                 IEECVETR    ER   2260 IO ROUTINE            MB Y02958
*                 IEECVETU    EU   3277 IO ROUTINE            MB Y02958
         SPACE 1                                              MB Y02958
*                  NAME   TRACE ID   DESCRIPTION              MB Y02958
DCMNPRZ  DS    F  IEECVFT1    F1   PROCESSOR 0 LOAD ONE       MB Y02958
DCMNPROC DS    F  IEECVET1    E1   PROCESSOR ROUTINE LOAD ONE MB Y02958
DCMNDSP1 DS    F  IEECVET2    E2   DISPLAY ROUTINE 1          MB Y02958
DCMNDSP2 DS    F  IEECVET3    E3   DISPLAY ROUTINE 2          MB Y02958
DCMNDSP3 DS    F  IEECVFT2    F2   DISPLAY ROUTINE 3          MB Y02958
DCMNCMD1 DS    F  IEECVET4    E4   COMMAND ROUTINE 1          MB Y02958
DCMNDEL1 DS    F  IEECVET6    E6   DELETE ROUTINE 1           MB Y02958
DCMNDEL2 DS    F  IEECVET7    E7   DELETE ROUTINE 2           MB Y02958
DCMNDEL3 DS    F  IEECVET8    E8   DELETE ROUTINE 3           MB Y02958
DCMNDEL4 DS    F  IEECVET9    E9   DELETE ROUTINE 4           MB Y02958
DCMNOPT1 DS    F  IEECVETA    EA   OPTIONS ROUTINE 1          MB Y02958
DCMNPFK1 DS    F  IEECVFTA    FA   PFK ROUTINE 1              MB Y02958
DCMNPFK2 DS    F  IEECVFTB    FB   PFK ROUTINE 2              MB Y02958
DCMNERRO DS    F  IEECVETC    EC   ASYNCHRONOUS ERROR ROUTINE MB Y02958
DCMNMSG1 DS    F  IEECVETD    ED   MESSAGE ROUTINE 1          MB Y02958
DCMNMSG2 DS    F  IEECVETE    EE   MESSAGE ROUTINE 2          MB Y02958
DCMNMSG3 DS    F  IEECVFTD    FD   MESSAGE ROUTINE 3          MB Y02958
DCMNLPCR DS    F  IEECVETF    EF   LIGHT PEN/CURSOR SERVICE   MB Y02958
DCMNOPCL DS    F  IEECVETG    EG   OPEN-CLOSE ROUTINE         MB Y02958
DCMNCLN  DS    F  IEECVFTG    FG   CLEANUP MODULE             MB Y02958
DCMNROLL DS    F  IEECVETJ    EJ   ROLL MODE ROUTINE          MB Y02958
DCMNTIMR DS    F  IEECVETK    EK   TIMER INTERPRETER ROUTINE  MB Y02958
DCMNINT1 DS    F  IEECVFTL    FL   INTERFACE 1 ROUTINE        MB Y02958
DCMNINT2 DS    F  IEECVFTM    FM   INTERFACE 2 ROUTINE        MB Y02958
DCMNINT3 DS    F  IEECVFTN    FN   INTERFACE 3 ROUTINE        MB Y02958
DCMNINT4 DS    F  IEECVFTO    FO   INTERFACE 4 ROUTINE        MB Y02958
DCMNINT5 DS    F  IEECVFTP    FP   INTERFACE 5 ROUTINE        MB Y02958
DCMNINT6 DS    F  IEECVFTQ    FQ   INTERFACE 6 ROUTINE        MB Y02958
DCMNINT7 DS    F  IEECVFTT    FT   INTERFACE 7 ROUTINE        MB Y02958
         SPACE 2
DCMTRACE DS    CL30                DIDOCS MODULE TRACE AREA   MB Y02958
DCMTRAC2 EQU   DCMTRACE+2          TRACE MOVE FROM-ADDRESS    MB Y02958
DCMTRLEN EQU   *-DCMTRACE          LENGTH FOR TRACE MOVE      MB Y02958
DCMTREN1 DS    C                   1ST BYTE OF TRACE ENTRY    MB Y02958
DCMTREN2 DS    C                   2ND BYTE OF TRACE ENTRY    MB Y02958
         EJECT
*  FIRST BYTE OF SCT ENTRIES
DCMMSGWR EQU   X'80'               WTOR MESSAGE DISPLAYED IN LINE
DCMMSGIN EQU   X'40'               MESSAGE DISPLAYED IN LINE
DCMMSGCN EQU   X'20'               MESSAGE CONTINUED ON NEXT LINE
DCMMSGJK EQU   X'10'               TO WRITE OUT-OF-LINE DISPLAY FROM
*                                  MAY CONTAIN JUNK (SDS INTERFACE 2)
DCMMSGAD EQU   X'08'               MESSAGE CAN BE DELETED AUTOMATICALLY
DCMMSGRD EQU   X'04'               REQUEST HAS SPECIFIED MSG BE REMOVED
DCMMSGIF EQU   X'02'               INFORMATIONAL MESSAGE IN LINE
DCMMSGST EQU   X'01'               END OF TABLE INDICATOR
         SPACE 2
*  SECOND BYTE OF SCT ENTRIES
DCMMSGAC EQU   X'80'               ACTION MESSAGE
DCMMSGC7 EQU   X'40'               DESCRIPTOR CODE 7 MESSAGE
DCMMSGDM EQU   X'20'               MESSAGE HAS BEEN DOMMED
DCMMSGAR EQU   X'10'               MESSAGE IS AN ACCEPTED REPLY
DCMMSGIR EQU   X'08'               INTERVENTION REQUIRED MESSAGE
DCMMSGCT EQU   X'04'               CONTINUATION LINE
DCMMSGPP EQU   X'02'               ISSUED BY PROBLEM PROGRAM
DCMMSGCL EQU   X'01'               CONTROL LINE OF IN LINE MLWTO
         SPACE 2
*  SECONDARY SCT ENTRIES
DCMSECCL EQU   X'80'               CONTROL LINE OF OUT OF LINE DISPLAY
DCMSECLL EQU   X'40'               LABEL LINE OF OUT OF LINE DISPLAY
DCMSECDL EQU   X'20'               DATA LINE OF OUT OF LINE DISPLAY
DCMSECBL EQU   X'10'               THIS LINE IS BLANKED
DCMSECDD EQU   X'02'               LINE RESERVED FOR DYNAMIC DISPLAY
DCMSECST EQU   X'01'               END OF TABLE INDICATOR
DCMEND   DS    0C                  END OF DCM
         MEND  , */
*********************D C M S   M A C R O S*****************************
*
         MACRO
&CSECT   XSTART &STAE=NO,&XCMD=YES,&LV=(18*4)
*        SPACE 4
         DCMSREGS
*        SPACE 4
&CSECT   CSECT
         SAVE  (14,12),,*
         USING &CSECT,R15
         LR    R5,R1               SAVE PARM INPUT REGISTER HERE
         LR    R12,R15             ESTABLISH A BASE
         USING &CSECT,R12
         DROP  R15
         CNOP  0,4
         BAL   R1,*+8              LENGTH FOR A STANDARD SAVE AREA
         DC    A(&LV.)              AND USER SPECIFIED LENGTH (LV)
         L     R0,0(,R1)
         SVC   10
*
*
*        EXPLICIT GETMAIN EXPANSION DONE TO FIX BUGS
*
*        GETMAIN R,LV=(0)          GET A SAVE AREA
*                                   ------
*                                  | S  L |
         ST    R13,4(R1)           | T  I |  SAVE ADDRESS OF PREVIOUS
         ST    R1,8(R13)           | D  N |  CREATE FORWARD POINTER
         LR    R13,R1              |    K |  AND USE R13 JUST FOR FUN
*                                   ------
         AIF   ('&STAE' NE 'YES').X1
         L     R10,=V(XCMDSTAE)
         ESTAE (R10),CT            SET ESTAE ENVIRONMENT
.X1      ANOP
         LR    R1,R5               RESTORE PARM REGISTER
         EJECT
         MEND
         MACRO
         DCMSREGS &R
*        COPY  DCMSGBLS
.*                                                                    *
.*       G B L A    D C M S  G R O U P                                *
.*                                                                    *
         GBLA  &DP(33) .
         GBLA  &GCT .
         GBLA  &GCOUNT .
.*       GBLA  &LVNUM .                                          BFG001
         GBLA  &REG .
.*                                                                    *
.*       G B L B    D C M S  G R O U P                                *
.*                                                                    *
         GBLB  &DBLE .
         GBLB  &LIST .
         GBLB  &DBUG .
         GBLB  &EQU .
         GBLB  &WDSW .
         GBLB  &RENT .
         GBLB  &PLG .
         GBLB  &ONETM .
         GBLB  &DASHS .
         GBLB  &PWRK .
         GBLB  &RCD .
         GBLB  &DCMSCLR .
         GBLB  &DCMSHEX .
         GBLB  &DCMSDEC .
         GBLB  &DCMSWRK .
         GBLB  &DCMSCRN .
         GBLB  &DCMSCST .
.*                                                                    *
.*       G B L C    D C M S  G R O U P                                *
.*                                                                    *
         GBLC  &WD(33) .
         GBLC  &NAM .
         GBLC  &DNAM .
         GBLC  &ONAM .
         GBLC  &INAM .
         GBLC  &RNAM .
         GBLC  &NDX .
         GBLC  &CSECT .
         GBLC  &DSECT .
         GBLC  &DCMSHLP