//TECHBHW  JOB  (450,FMAIN),'BRIAN WESTERMAN',MSGCLASS=H,CLASS=A,
//   NOTIFY=TECHBHW,REGION=0M,TIME=1440
//*
//ASSEMBLE EXEC ASMHCL,REGION.C=1024K,REGION.L=1024K,
//             PARM.L='LET,LIST,XREF,NCAL,RENT,REFR,REUS'
//C.SYSLIB DD
//         DD  DISP=SHR,DSN=OEMTC.HSC.V2R0M1.SLSMAC
//         DD  DISP=SHR,DSN=SYSX.CAI.R10.CAIMAC
//         DD  DISP=SHR,DSN=SYS1.MACLIB
//C.SYSIN DD *
         MACRO
         EQUATES
.* ** * ** * ** * ** * ** * ** * ** * ** * ** * ** * ** * ** * ** *
.* ** STANDARD EQUATE MACRO ** * ** * ** * ** * ** * ** * ** * ** *
.* ** * ** * ** * ** * ** * ** * ** * ** * ** * ** * ** * ** * ** *
R0       EQU   0
R1       EQU   1
R2       EQU   2
R3       EQU   3
R4       EQU   4
R5       EQU   5
R6       EQU   6
R7       EQU   7
R8       EQU   8
R9       EQU   9
R10      EQU   10
R11      EQU   11
R12      EQU   12
R13      EQU   13
R14      EQU   14
R15      EQU   15
FPR0     EQU   0
FPR2     EQU   2
FPR4     EQU   4
FPR6     EQU   6
         MEND
         MACRO
&NAME    PRIMEH &OP1,&OP2,&OP3,&OP4,&OP5,&OP6,&LOC=(RES,ANY),&SP=0
.*
.*    THIS MACRO HAS BEEN REWORKED TO PROVIDE COMPLETE XA 31 BIT
.*  ADDRESSING SUPPORT.  IT CAN ONLY BE USED WITH ASSEMBLER H.
.*  THE PURPOSE OF THIS MACRO IS TO PROVIDE STANDARD OS LINKAGE.
.*  IT WILL SAVE REGISTERS, CREATE THE 18 WORD SAVE AREA, AND
.*  ESTABLISH UP TO FOUR BASE REGISTERS.  ALL OPERANDS ARE OPTIONAL
.*  WITH ONE BASE REGISTER, REGISTER 12, AND AN UNNAMED SAVE AREA
.*  BEING THE DEFAULTS.  IF A DYNAMIC SAVE AREA IS DESIRED, BY CODING
.*  THE KEYWORD 'DYNAMIC' AS THE SAVE AREA NAME A 'GETMAIN' INSTEAD
.*  OF AN 18 WORD NAMED SAVE AREA WILL BE GENERATED.  THE DEFAULT FOR
.*  THE GETMAIN WILL BE IN THE SAME STORAGE AS THE CALLER IE; ABOVE
.*  OR BELOW THE LINE.  THIS MAY BE OVERRIDEN BY CODING A 'LOC=VAL'
.*  AS THE LAST PARAMATER OF THE PRIME MACRO.  YOU MUST USE THE
.*  VALID VALUE(S) FOR THE 'LOC=' PARAMATER OF THE GETMAIN MACRO
.*  AS DOCUMENTED IN THE 'MVS/ESA APPLICATION DEVELOPMENT MACRO
.*  REFERENCE' MANUAL (GC28-1822-1).  IF TWO VALUES ARE CODED
.*  THEY MUST INCLUDE THE PARENS.  THE SUBPOOL PARAMETER IS ALSO
.*  SUPPORTED AND MAY BE CODED ON THE MACRO AS 'SP=N' WHERE N IS
.*  THE REQUESTED STORAGE SUBPOOL.  IF THE SUBPOOL PARAMETER IS
.*  OMMITTED 'SP=0' IS THE DEFAULT.  THE 'TERMEH' MACRO MUST BE USED
.*  IN CONJUNCTION WITH THIS MACRO FOR PROGRAM EXIT AS THE FREEMAIN
.*  INDICATOR MOVED TO SUPPORT XA/31 BIT ADDRESSING AND THE 'SP='
.*  PARAMETER IS PASSED TO THE 'TERMEH' TO IDENTIFY THE PROPER
.*  STORAGE SUBPOOL TO BE FREEMAINED.
.*
.*    DATE - JULY 1997 - PRIMEH CREATED FOR XA COMPATIBILITY.
.*                       TERMEH MACRO MUST BE USED FOR SAVE
.*                       AREA FREEMAIN COMPATIBILITY FOR PROGRAM
.*                       TERMINATION.
.*                       ASSEMBLER H MUST BE USED.
.*                       SUPPORTS AMODE/RMODE = ANY.
.*
.****************************************************************
.*
.*    ROUTINE TO DETERMINE THE NUMBER OF OPERANDS THAT ARE CODED
.*
          LCLC  &E
          LCLC  &EE
          LCLC  &EEE
          LCLC  &EEEE
          GBLC  &SPN#
          AIF   (T'&SP EQ 'N').AA1
          MNOTE 12,'** ERROR ** ILLEGAL SP VALUE, MUST BE NUMERIC'
          MEXIT
.AA1      ANOP
          AIF   ('&SP' LT '255').AA2
          MNOTE 12,'** ERROR ** SP= VALUE OUT OF RANGE'
          MEXIT
.AA2      ANOP
&SPN#     SETC  '&SP'
          AIF   ('&OP6' EQ '').AA  CHECK FOR AN EXTRA OPERAND
          MNOTE 'WARNING-EXTRA OPERAND SPECIFIED-CHECK COMPILER OUTPUT'
.AA       ANOP
          AIF   ('&OP5' EQ '').AB  OPERAND FIVE BLANK
          AGO   .BA                 NO
.AB       ANOP
          AIF   ('&OP4' EQ '').AC  OPERAND FOUR BLANK
          AGO   .CA                 NO
.AC       ANOP
          AIF   ('&OP3' EQ '').AD  OPERAND THREE BLANK
          AGO   .DA                 NO
.AD       ANOP
          AIF   ('&OP2' EQ '').AE  OPERAND TWO BLANK
          AGO   .EA                 NO
.AE       ANOP
          AIF   ('&OP1' EQ '').GA  OPERAND ONE BLANK
          AGO   .FA                 NO
.*
.*    ROUTINE FOR FIVE OPERANDS
.*
.BA       ANOP                     ENTRY POINT
&E        SETC  '&OP1'             SET BASE REGISTER ONE
&EE       SETC  '&OP2'             SET BASE REGISTER TWO
&EEE      SETC  '&OP3'             SET BASE REGISTER THREE
&EEEE     SETC  '&OP4'             SET BASE REGISTER FOUR
          AIF   ('&E' EQ '0' OR '&E' EQ '1' OR '&E' EQ '13').BB
          AIF   ('&E' EQ '14' OR '&E' EQ '15').BB
          AIF   ('&E' EQ 'R0' OR '&E' EQ 'R1' OR '&E' EQ 'R13').BB
          AIF   ('&E' EQ 'R14' OR '&E' EQ 'R15').BB
          AGO   .BC
.BB       MNOTE 'WARNING - ILLEGAL BASE REGISTER &OP1 SPECIFIED'
.BC       AIF   ('&EE' EQ '0' OR '&EE' EQ '1' OR '&EE' EQ '13').BD
          AIF   ('&EE' EQ '14' OR '&EE' EQ '15').BD
          AIF   ('&EE' EQ 'R0' OR '&EE' EQ 'R1').BD
          AIF   ('&EE' EQ 'R13' OR '&EE' EQ 'R14').BD
          AIF   ('&EE' EQ 'R15').BD
          AGO   .BE
.BD       MNOTE 'WARNING - ILLEGAL BASE REGISTER &OP2 SPECIFIED'
.BE       AIF   ('&EEE' EQ '0' OR '&EEE' EQ '1' OR '&EEE' EQ '13').BF
          AIF   ('&EEE' EQ '14' OR '&EEE' EQ '15').BF
          AIF   ('&EEE' EQ 'R0' OR '&EEE' EQ 'R1').BF
          AIF   ('&EEE' EQ 'R13' OR '&EEE' EQ 'R14').BF
          AIF   ('&EEE' EQ 'R15').BF
          AGO   .BG
.BF       MNOTE 'WARNING - ILLEGAL BASE REGISTER &OP3 SPECIFIED'
.BG       AIF   ('&EEEE' EQ '0' OR '&EEEE' EQ '1').BH
          AIF   ('&EEEE' EQ '13' OR '&EEEE' EQ '14').BH
          AIF   ('&EEEE' EQ '15').BH
          AIF   ('&EEEE' EQ 'R0' OR '&EEEE' EQ 'R1').BH
          AIF   ('&EEEE' EQ 'R13' OR '&EEEE' EQ 'R14').BH
          AIF   ('&EEEE' EQ 'R15').BH
          AGO   .BI
.BH       MNOTE 'WARNING - ILLEGAL BASE REGISTER &OP4 SPECIFIED'
.BI       AIF   ('&E' EQ '' OR '&EE' EQ '' OR '&EEE' EQ '').BJ
          AIF   ('&EEEE' EQ '').BJ
          AGO   .BK
.BJ       MNOTE 'ERROR - BLANK BASE REGISTER SPECIFIED'
          MEXIT
.BK       ANOP                     ENTRY POINT
          AIF   ('&OP5' EQ 'DYNAMIC').BM TEST FOR A DYNAMIC S.A.
          DS    0H
          USING *,&E,&EE,&EEE,&EEEE ESTABLISH BASE REGISTERS
&NAME     BASR  15,0               INSURE PGM BASE AND MODE
          BCTR  15,0                ADDRESSABILITY IN ENTRY
          BCTR  15,0                 POINT REGISTER
          STM   14,12,12(13)       SAVE REGISTERS 14 THROUGH 12
          LR    &E,15              LOAD BASE REGISTER ONE
          LA    &EEEE,1(0,0)       SET REGISTER TO A BINARY ONE
          LA    &EE,4095(&E,&EEEE) LOAD BASE REGISTER TWO
          LA    &EEE,4095(&EE,&EEEE) LOAD BASE REGISTER THREE
          LA    &EEEE,4095(&EEE,&EEEE) LOAD BASE REGISTER FOUR
          CNOP  0,4                WORD ALIGNMENT
          BAS   1,BA&SYSNDX        OBTAIN SAVE AREA ADDRESS
&OP5      DC    18F'0',H'0'        18 WORD SAVE AREA AND TERMEH FLAG
BA&SYSNDX ST    1,8(0,13)          STORE LOWER SAVE AREA POINTER
.BL       ANOP                     ENTRY POINT
          ST    13,4(0,1)          STORE HIGHER SAVE AREA POINTER
          LM    0,1,20(13)         RESTORE REGISTERS 0 AND 1
          L     13,8(0,13)         LOAD SAVE AREA ADDRESS
          MEXIT
.BM       ANOP
          DS    0H
          USING *,&E,&EE,&EEE,&EEEE ESTABLISH BASE REGISTERS
&NAME     BASR  15,0               INSURE PGM BASE AND MODE
          BCTR  15,0                ADDRESSABILITY IN ENTRY
          BCTR  15,0                 POINT REGISTER
          STM   14,12,12(13)       SAVE REGISTERS 14 THROUGH 12
          LR    &E,15              LOAD BASE REGISTER ONE
          LA    &EEEE,1(0,0)       SET REGISTER TO A BINARY ONE
          LA    &EE,4095(&E,&EEEE) LOAD BASE REGISTER TWO
          LA    &EEE,4095(&EE,&EEEE) LOAD BASE REGISTER THREE
          LA    &EEEE,4095(&EEE,&EEEE) LOAD BASE REGISTER FOUR
.*
.*    ACQUIRE A SAVE AREA IN SAME VIRTUAL STORAGE THIS PROGRAM
.*    IS EXECUTING IN (ABOVE OR BELOW THE 16 MEG. LINE)
.*
          MNOTE  '         GETMAIN RU,LV=74,LOC=&LOC,SP=&SPN#'
          GETMAIN RU,LV=74,LOC=&LOC,SP=&SPN#  ACQUIRE A SAVE AREA
          XC    0(74,1),0(1)       CLEAR ACQUIRED SAVE AREA
          ST    1,8(0,13)          STORE LOWER SAVE AREA POINTER
          MVI   72(1),X'FF'        SET INDICATOR FOR TERME MACRO
          AGO   .BL                TO FINISH ROUTINE
.*
.*    ROUTINE FOR FOUR OPERANDS
.*
.CA       ANOP                     ENTRY POINT
&E        SETC  '&OP1'             SET BASE REGISTER ONE
&EE       SETC  '&OP2'             SET BASE REGISTER TWO
&EEE      SETC  '&OP3'             SET BASE REGISTER THREE
&EEEE     SETC  '&OP4'             SET BASE REGISTER FOUR
          AIF   (T'&OP4 EQ 'N').CB TEST OPERAND FOUR FOR NUMERIC
          AGO   .CO                 NO - CONTINUE
.CB       ANOP                     ENTRY POINT
          AIF   ('&E' EQ '0' OR '&E' EQ '1' OR '&E' EQ '13').CC
          AIF   ('&E' EQ '14' OR '&E' EQ '15').CC
          AIF   ('&E' EQ 'R0' OR '&E' EQ 'R1' OR '&E' EQ 'R13').CC
          AIF   ('&E' EQ 'R14' OR '&E' EQ 'R15').CC
          AGO   .CD
.CC       MNOTE 'WARNING - ILLEGAL BASE REGISTER &OP1 SPECIFIED'
.CD       AIF   ('&EE' EQ '0' OR '&EE' EQ '1' OR '&EE' EQ '13').CE
          AIF   ('&EE' EQ '14' OR '&EE' EQ '15').CE
          AIF   ('&EE' EQ 'R0' OR '&EE' EQ 'R1').CE
          AIF   ('&EE' EQ 'R13' OR '&EE' EQ 'R14').CE
          AIF   ('&EE' EQ 'R15').CE
          AGO   .CF
.CE       MNOTE 'WARNING - ILLEGAL BASE REGISTER &OP2 SPECIFIED'
.CF       AIF   ('&EEE' EQ '0' OR '&EEE' EQ '1' OR '&EEE' EQ '13').CG
          AIF   ('&EEE' EQ '14' OR '&EEE' EQ '15').CG
          AIF   ('&EEE' EQ 'R0' OR '&EEE' EQ 'R1').CG
          AIF   ('&EEE' EQ 'R13' OR '&EEE' EQ 'R14').CG
          AIF   ('&EEE' EQ 'R15').CG
          AGO   .CH
.CG       MNOTE 'WARNING - ILLEGAL BASE REGISTER &OP3 SPECIFIED'
.CH       AIF   ('&EEEE' EQ '0' OR '&EEEE' EQ '1').CI
          AIF   ('&EEEE' EQ '13' OR '&EEEE' EQ '14').CI
          AIF   ('&EEEE' EQ '15').CI
          AIF   ('&EEEE' EQ 'R0' OR '&EEEE' EQ 'R1').CI
          AIF   ('&EEEE' EQ 'R13' OR '&EEEE' EQ 'R14').CI
          AIF   ('&EEEE' EQ 'R15').CI
          AGO   .CJ
.CI       MNOTE 'WARNING - ILLEGAL BASE REGISTER &OP4 SPECIFIED'
.CJ       AIF   ('&E' EQ '' OR '&EE' EQ '' OR '&EEE' EQ '').CK
          AIF   ('&EEEE' EQ '').CK
          AGO   .CL
.CK       MNOTE 'ERROR - BLANK BASE REGISTER SPECIFIED'
          MEXIT
.CL       ANOP                     ENTRY POINT
          DS    0H
          USING *,&E,&EE,&EEE,&EEEE ESTABLISH BASE REGISTERS
&NAME     BASR  15,0               INSURE PGM BASE AND MODE
          BCTR  15,0                ADDRESSABILITY IN ENTRY
          BCTR  15,0                 POINT REGISTER
          STM   14,12,12(13)       SAVE REGISTERS 14 THROUGH 12
          LR    &E,15              LOAD BASE REGISTER ONE
          LA    &EEEE,1(0,0)       SET REGISTER TO A BINARY ONE
          LA    &EE,4095(&E,&EEEE)  LOAD BASE REGISTER TWO
          LA    &EEE,4095(&EE,&EEEE) LOAD BASE REGISTER THREE
          LA    &EEEE,4095(&EEE,&EEEE) LOAD BASE REGISTER FOUR
          CNOP  0,4                WORD ALIGNMENT
          BAS   1,CA&SYSNDX        OBTAIN SAVE AREA ADDRESS
          DC    18F'0',H'0'        18 WORD SAVE AREA AND TERMEH FLAG
.CM       ANOP                     ENTRY POINT
CA&SYSNDX ST    1,8(0,13)          STORE LOWER SAVE AREA POINTER
.CN       ANOP                     ENTRY POINT
          ST    13,4(0,1)          STORE HIGHER SAVE AREA POINTER
          LM    0,1,20(13)         RESTORE REGISTERS 0 AND 1
          L     13,8(0,13)         LOAD SAVE AREA ADDRESS
          MEXIT
.CO       ANOP                     ENTRY POINT
          AIF   ('&EEEE' EQ 'R0' OR '&EEEE' EQ 'R1').CB
          AIF   ('&EEEE' EQ 'R2' OR '&EEEE' EQ 'R3').CB
          AIF   ('&EEEE' EQ 'R4' OR '&EEEE' EQ 'R5').CB
          AIF   ('&EEEE' EQ 'R6' OR '&EEEE' EQ 'R7').CB
          AIF   ('&EEEE' EQ 'R8' OR '&EEEE' EQ 'R9').CB
          AIF   ('&EEEE' EQ 'R10' OR '&EEEE' EQ 'R11').CB
          AIF   ('&EEEE' EQ 'R12' OR '&EEEE' EQ 'R13').CB
          AIF   ('&EEEE' EQ 'R14' OR '&EEEE' EQ 'R15').CB
          AIF   ('&E' EQ '0' OR '&E' EQ '1' OR '&E' EQ '13').CP
          AIF   ('&E' EQ '14' OR '&E' EQ '15').CP
          AIF   ('&E' EQ 'R0' OR '&E' EQ 'R1' OR '&E' EQ 'R13').CP
          AIF   ('&E' EQ 'R14' OR '&E' EQ 'R15').CP
          AGO   .CQ
.CP       MNOTE 'WARNING - ILLEGAL BASE REGISTER &OP1 SPECIFIED'
.CQ       AIF   ('&EE' EQ '0' OR '&EE' EQ '1' OR '&EE' EQ '13').CR
          AIF   ('&EE' EQ '14' OR '&EE' EQ '15').CR
          AIF   ('&EE' EQ 'R0' OR '&EE' EQ 'R1').CR
          AIF   ('&EE' EQ 'R13' OR '&EE' EQ 'R14').CR
          AIF   ('&EE' EQ 'R15').CR
          AGO   .CS
.CR       MNOTE 'WARNING - ILLEGAL BASE REGISTER &OP2 SPECIFIED'
.CS       AIF   ('&EEE' EQ '0' OR '&EEE' EQ '1' OR '&EEE' EQ '13').CT
          AIF   ('&EEE' EQ '14' OR '&EEE' EQ '15').CT
          AIF   ('&EEE' EQ 'R0' OR '&EEE' EQ 'R1').CT
          AIF   ('&EEE' EQ 'R13' OR '&EEE' EQ 'R14').CT
          AIF   ('&EEE' EQ 'R15').CT
          AGO   .CU
.CT       MNOTE 'WARNING - ILLEGAL BASE REGISTER &OP3 SPECIFIED'
.CU       AIF   ('&E' EQ '' OR '&EE' EQ '' OR '&EEE' EQ '').CV
          AIF   ('&EEEE' EQ '').CV
          AGO   .CW
.CV       MNOTE 'ERROR - BLANK BASE REGISTER SPECIFIED'
          MEXIT
.CW       ANOP                     ENTRY POINT
          AIF   ('&OP4' EQ 'DYNAMIC').CX TEST FOR A DYNAMIC S.A.
          DS    0H
          USING *,&E,&EE,&EEE      ESTABLISH BASE REGISTERS
&NAME     BASR  15,0               INSURE PGM BASE AND MODE
          BCTR  15,0                ADDRESSABILITY IN ENTRY
          BCTR  15,0                 POINT REGISTER
          STM   14,12,12(13)       SAVE REGISTERS 14 THROUGH 12
          LR    &E,15              LOAD BASE REGISTER ONE
          LA    &EEE,1(0,0)        SET REGISTER TO A BINARY ONE
          LA    &EE,4095(&E,&EEE)  LOAD BASE REGISTER TWO
          LA    &EEE,4095(&EE,&EEE) LOAD BASE REGISTER THREE
          CNOP  0,4                WORD ALIGNMENT
          BAS   1,CA&SYSNDX        OBTAIN SAVE AREA ADDRESS
&OP4      DC    18F'0',H'0'        18 WORD SAVE AREA AND TERMEH FLAG
          AGO   .CM                TO FINISH ROUTINE
.CX       ANOP                     ENTRY POINT
          DS    0H
          USING *,&E,&EE,&EEE      ESTABLISH BASE REGISTERS
&NAME     BASR  15,0               INSURE PGM BASE AND MODE
          BCTR  15,0                ADDRESSABILITY IN ENTRY
          BCTR  15,0                 POINT REGISTER
          STM   14,12,12(13)       SAVE REGISTERS 14 THROUGH 12
          LR    &E,15              LOAD BASE REGISTER ONE
          LA    &EEE,1(0,0)        SET REGISTER TO A BINARY ONE
          LA    &EE,4095(&E,&EEE)  LOAD BASE REGISTER TWO
          LA    &EEE,4095(&EE,&EEE) LOAD BASE REGISTER THREE
          MNOTE  '         GETMAIN RU,LV=74,LOC=&LOC,SP=&SPN#'
          GETMAIN RU,LV=74,LOC=&LOC,SP=&SPN#  ACQUIRE A SAVE AREA
          XC    0(74,1),0(1)       CLEAR ACQUIRED SAVE AREA
          ST    1,8(0,13)          STORE LOWER SAVE AREA POINTER
          MVI   72(1),X'FF'        SET INDICATOR FOR TERME MACRO
          AGO   .CN                TO FINISH ROUTINE
.*
.*    ROUTINE FOR THREE OPERANDS
.*
.DA       ANOP                     ENTRY POINT
&E        SETC  '&OP1'             SET BASE REGISTER ONE
&EE       SETC  '&OP2'             SET BASE REGISTER TWO
&EEE      SETC  '&OP3'             SET BASE REGISTER THREE
          AIF   (T'&OP3 EQ 'N').DB TEST OPERAND THREE FOR NUMERIC
          AGO   .DM                 NO - CONTINUE
.DB       ANOP                     ENTRY POINT
          AIF   ('&E' EQ '0' OR '&E' EQ '1' OR '&E' EQ '13').DC
          AIF   ('&E' EQ '14' OR '&E' EQ '15').DC
          AIF   ('&E' EQ 'R0' OR '&E' EQ 'R1' OR '&E' EQ 'R13').DC
          AIF   ('&E' EQ 'R14' OR '&E' EQ 'R15').DC
          AGO   .DD
.DC       MNOTE ' WARNING - ILLEGAL BASE REGISTER &OP1 SPECIFIED'
.DD       AIF   ('&EE' EQ '0' OR '&EE' EQ '1' OR '&EE' EQ '13').DE
          AIF   ('&EE' EQ '14' OR '&EE' EQ '15').DE
          AIF   ('&EE' EQ 'R0' OR '&EE' EQ 'R1').DE
          AIF   ('&EE' EQ 'R13' OR '&EE' EQ 'R14').DE
          AIF   ('&EE' EQ 'R15').DE
          AGO   .DF
.DE       MNOTE 'WARNING - ILLEGAL BASE REGISTER &OP2 SPECIFIED'
.DF       AIF   ('&EEE' EQ '0' OR '&EEE' EQ '1' OR '&EEE' EQ '13').DG
          AIF   ('&EEE' EQ '14' OR '&EEE' EQ '15').DG
          AIF   ('&EEE' EQ 'R0' OR '&EEE' EQ 'R1').DG
          AIF   ('&EEE' EQ 'R13' OR '&EEE' EQ 'R14').DG
          AIF   ('&EEE' EQ 'R15').DG
          AGO   .DH
.DG       MNOTE 'WARNING - ILLEGAL BASE REGISTER &OP3 SPECIFIED'
.DH       AIF   ('&E' EQ '' OR '&EE' EQ '' OR '&EEE' EQ '').DI
          AGO   .DJ
.DI       MNOTE 'ERROR - BLANK BASE REGISTER SPECIFIED'
          MEXIT
.DJ       ANOP                     ENTRY POINT
          DS    0H
          USING *,&E,&EE,&EEE      ESTABLISH BASE REGISTERS
&NAME     BASR  15,0               INSURE PGM BASE AND MODE
          BCTR  15,0                ADDRESSABILITY IN ENTRY
          BCTR  15,0                 POINT REGISTER
          STM   14,12,12(13)       SAVE REGISTERS 14 THROUGH 12
          LR    &E,15              LOAD BASE REGISTER ONE
          LA    &EEE,1(0,0)        SET REGISTER TO A BINARY ONE
          LA    &EE,4095(&E,&EEE)  LOAD BASE REGISTER TWO
          LA    &EEE,4095(&EE,&EEE) LOAD BASE REGISTER THREE
          CNOP  0,4                WORD ALIGNMENT
          BAS   1,DA&SYSNDX        OBTAIN SAVE AREA ADDRESS
          DC    18F'0',H'0'        18 WORD SAVE AREA AND TERMEH FLAG
.DK       ANOP                     ENTRY POINT
DA&SYSNDX ST    1,8(0,13)          STORE LOWER SAVE AREA POINTER
.DL       ANOP                     ENTRY POINT
          ST    13,4(0,1)          STORE HIGHER SAVE AREA POINTER
          LM    0,1,20(13)         RESTORE REGISTERS 0 AND 1
          L     13,8(0,13)         LOAD SAVE AREA ADDRESS
          MEXIT
.DM       ANOP                     ENTRY POINT
          AIF   ('&EEE' EQ 'R0' OR '&EEE' EQ 'R1').DB
          AIF   ('&EEE' EQ 'R2' OR '&EEE' EQ 'R3').DB
          AIF   ('&EEE' EQ 'R4' OR '&EEE' EQ 'R5').DB
          AIF   ('&EEE' EQ 'R6' OR '&EEE' EQ 'R7').DB
          AIF   ('&EEE' EQ 'R8' OR '&EEE' EQ 'R9').DB
          AIF   ('&EEE' EQ 'R10' OR '&EEE' EQ 'R11').DB
          AIF   ('&EEE' EQ 'R12' OR '&EEE' EQ 'R13').DB
          AIF   ('&EEE' EQ 'R14' OR '&EEE' EQ 'R15').DB
          AIF   ('&E' EQ '0' OR '&E' EQ '1' OR '&E' EQ '13').DN
          AIF   ('&E' EQ '14' OR '&E' EQ '15').DN
          AIF   ('&E' EQ 'R0' OR '&E' EQ 'R1' OR '&E' EQ 'R13').DN
          AIF   ('&E' EQ 'R14' OR '&E' EQ 'R15').DN
          AGO   .DO
.DN       MNOTE 'WARNING - ILLEGAL BASE REGISTER &OP1 SPECIFIED'
.DO       AIF   ('&EE' EQ '0' OR '&EE' EQ '1' OR '&EE' EQ '13').DP
          AIF   ('&EE' EQ '14' OR '&EE' EQ '15').DP
          AIF   ('&EE' EQ 'R0' OR '&EE' EQ 'R1').DP
          AIF   ('&EE' EQ 'R13' OR '&EE' EQ 'R14').DP
          AIF   ('&EE' EQ 'R15').DP
          AGO   .DQ
.DP       MNOTE 'WARNING - ILLEGAL BASE REGISTER &OP2 SPECIFIED'
.DQ       AIF   ('&E' EQ '' OR '&EE' EQ '').DR
          AGO   .DS
.DR       MNOTE 'ERROR - BLANK BASE REGISTER SPECIFIED'
          MEXIT
.DS       ANOP                     ENTRY POINT
          AIF   ('&OP3' EQ 'DYNAMIC').DT TEST FOR A DYNAMIC S.A.
          DS    0H
          USING *,&E,&EE           ESTABLISH BASE REGISTERS
&NAME     BASR  15,0               INSURE PGM BASE AND MODE
DB&SYSNDX BCTR  15,0                ADDRESSABILITY IN ENTRY
          BCTR  15,0                 POINT REGISTER
          STM   14,12,12(13)       SAVE REGISTERS 14 THROUGH 12
          LR    &E,15              LOAD BASE REGISTER ONE
          L     &EE,DC&SYSNDX      LOAD BASE REGISTER TWO
          CNOP  0,4                WORD ALIGNMENT
          BAS   1,DA&SYSNDX        OBTAIN SAVE AREA ADDRESS
&OP3      DC    18F'0',H'0'        18 WORD SAVE AREA AND TERMEH FLAG
DC&SYSNDX DC    A(DB&SYSNDX+4094)  SECOND BASE REGISTER ADDRESS
          AGO   .DK                TO FINISH ROUTINE
.DT       ANOP                     ENTRY POINT
          DS    0H
          USING *,&E,&EE           ESTABLISH BASE REGISTERS
&NAME     BASR  15,0               INSURE PGM BASE AND MODE
          BCTR  15,0                ADDRESSABILITY IN ENTRY
          BCTR  15,0                 POINT REGISTER
          STM   14,12,12(13)       SAVE REGISTERS 14 THROUGH 12
          LR    &E,15              LOAD BASE REGISTER ONE
          LA    &EE,1(0,0)         SET REGISTER TO A BINARY ONE
          LA    &EE,4095(&E,&EE)   LOAD BASE REGISTER TWO
          MNOTE  '         GETMAIN RU,LV=74,LOC=&LOC,SP=&SPN#'
          GETMAIN RU,LV=74,LOC=&LOC,SP=&SPN#  ACQUIRE A SAVE AREA
          XC    0(74,1),0(1)       CLEAR ACQUIRED SAVE AREA
          ST    1,8(0,13)          STORE LOWER SAVE AREA POINTER
          MVI   72(1),X'FF'        SET INDICATOR FOR TERME MACRO
          AGO   .DL                TO FINISH ROUTINE
.*
.*     ROUTINE FOR TWO OPERANDS
.*
.EA       ANOP
&E        SETC  '&OP1'             SET BASE REGISTER ONE
&EE       SETC  '&OP2'             SET BASE REGISTER TWO
          AIF   (T'&OP2 EQ 'N').EB TEST OPERAND TWO FOR NUMERIC
          AGO   .EK                 NO - CONTINUE
.EB       ANOP                     ENTRY POINT
          AIF   ('&E' EQ '0' OR '&E' EQ '1' OR '&E' EQ '13').EC
          AIF   ('&E' EQ '14' OR '&E' EQ '15').EC
          AIF   ('&E' EQ 'R0' OR '&E' EQ 'R1' OR '&E' EQ 'R13').EC
          AIF   ('&E' EQ 'R14' OR '&E' EQ 'R15').EC
          AGO   .ED
.EC       MNOTE 'WARNING - ILLEGAL BASE REGISTER &OP1 SPECIFIED'
.ED       AIF   ('&EE' EQ '0' OR '&EE' EQ '1' OR '&EE' EQ '13').EE
          AIF   ('&EE' EQ '14' OR '&EE' EQ '15').EE
          AIF   ('&EE' EQ 'R0' OR '&EE' EQ 'R1').EE
          AIF   ('&EE' EQ 'R13' OR '&EE' EQ 'R14').EE
          AIF   ('&EE' EQ 'R15').EE
          AGO   .EF
.EE       MNOTE 'WARNING - ILLEGAL BASE REGISTER &OP2 SPECIFIED'
.EF       AIF   ('&E' EQ '' OR '&EE' EQ '').EG
          AGO   .EH
.EG       MNOTE 'ERROR - BLANK BASE REGISTER SPECIFIED'
          MEXIT
.EH       ANOP                     ENTRY POINT
          DS    0H
          USING *,&E,&EE           ESTABLISH BASE REGISTERS
&NAME     BASR  15,0               INSURE PGM BASE AND MODE
EA&SYSNDX BCTR  15,0                ADDRESSABILITY IN ENTRY
          BCTR  15,0                 POINT REGISTER
          STM   14,12,12(13)       SAVE REGISTERS 14 THROUGH 12
          LR    &E,15              LOAD BASE REGISTER ONE
          L     &EE,EB&SYSNDX      LOAD BASE REGISTER TWO
          CNOP  0,4                WORD ALIGNMENT
          BAS   1,EC&SYSNDX        OBTAIN SAVE AREA ADDRESS
          DC    18F'0',H'0'        18 WORD SAVE AREA AND TERMEH FLAG
EB&SYSNDX DC    A(EA&SYSNDX+4094)  SECOND BASE REGISTER ADDRESS
.EI       ANOP
EC&SYSNDX ST    1,8(0,13)          STORE LOWER SAVE AREA POINTER
.EJ       ANOP                     ENTRY POINT
          ST    13,4(0,1)          STORE HIGHER SAVE AREA POINTER
          LM    0,1,20(13)         RESTORE REGISTERS 0 AND 1
          L     13,8(0,13)         LOAD SAVE AREA ADDRESS
          MEXIT
.EK       ANOP                     ENTRY POINT
          AIF   ('&EE' EQ 'R0' OR '&EE' EQ 'R1').EB
          AIF   ('&EE' EQ 'R2' OR '&EE' EQ 'R3').EB
          AIF   ('&EE' EQ 'R4' OR '&EE' EQ 'R5').EB
          AIF   ('&EE' EQ 'R6' OR '&EE' EQ 'R7').EB
          AIF   ('&EE' EQ 'R8' OR '&EE' EQ 'R9').EB
          AIF   ('&EE' EQ 'R10' OR '&EE' EQ 'R11').EB
          AIF   ('&EE' EQ 'R12' OR '&EE' EQ 'R13').EB
          AIF   ('&EE' EQ 'R14' OR '&EE' EQ 'R15').EB
          AIF   ('&E' EQ '0' OR '&E' EQ '1' OR '&E' EQ '13').EL
          AIF   ('&E' EQ '14' OR '&E' EQ '15').EL
          AIF   ('&E' EQ 'R0' OR '&E' EQ 'R1' OR '&E' EQ 'R13').EL
          AIF   ('&E' EQ 'R14' OR '&E' EQ 'R15').EL
          AGO   .EM
.EL       MNOTE 'WARNING - ILLEGAL BASE REGISTER &OP1 SPECIFIED'
.EM       AIF   ('&E' EQ '').EN
          AGO   .EO
.EN       MNOTE 'ERROR - BLANK BASE REGISTER SPECIFIED'
          MEXIT
.EO       ANOP                     ENTRY POINT
          AIF   ('&OP2' EQ 'DYNAMIC').EP TEST FOR A DYNAMIC S.A.
          DS    0H
          USING *,&E               ESTABLISH BASE REGISTER
&NAME     BASR  15,0               INSURE PGM BASE AND MODE
          BCTR  15,0                ADDRESSABLILITY IN ENTRY
          BCTR  15,0                 POINT REGISTER
          STM   14,12,12(13)       SAVE REGISTERS 14 THROUGH 12
          LR    &E,15              LOAD BASE REGISTER
          CNOP  0,4                WORD ALIGNMENT
          BAS   1,EC&SYSNDX        OBTAIN SAVE AREA ADDRESS
&OP2      DC    18F'0',H'0'        18 WORD SAVE AREA AND TERMEH FLAG
          AGO   .EI                TO FINISH ROUTINE
.EP       ANOP                     ENTRY POINT
          DS    0H
          USING *,&E               ESTABLISH BASE REGISTER
&NAME     BASR  15,0               INSURE PGM BASE AND MODE
          BCTR  15,0                ADDRESSABILITY IN ENTRY
          BCTR  15,0                 POINT REGISTER
          STM   14,12,12(13)       SAVE REGISTERS 14 THROUGH 12
          LR    &E,15              LOAD BASE REGISTER
          MNOTE  '         GETMAIN RU,LV=74,LOC=&LOC,SP=&SPN#'
          GETMAIN RU,LV=74,LOC=&LOC,SP=&SPN#  ACQUIRE A SAVE AREA
          XC    0(74,1),0(1)       CLEAR ACQUIRED SAVE AREA
          ST    1,8(0,13)          STORE LOWER SAVE AREA POINTER
          MVI   72(1),X'FF'        SET INDICATOR FOR TERME MACRO
          AGO   .EJ                TO FINISH ROUTINE
.*
.*     ROUTINE FOR ONE OPERAND
.*
.FA       ANOP                     ENTRY POINT
&E        SETC  '&OP1'             SET BASE REGISTER
          AIF   (T'&OP1 EQ 'N').GB TEST OPERAND ONE FOR NUMERIC
          AIF   ('&E' EQ 'R0' OR '&E' EQ 'R1').GB
          AIF   ('&E' EQ 'R2' OR '&E' EQ 'R3').GB
          AIF   ('&E' EQ 'R4' OR '&E' EQ 'R5').GB
          AIF   ('&E' EQ 'R6' OR '&E' EQ 'R7').GB
          AIF   ('&E' EQ 'R8' OR '&E' EQ 'R9').GB
          AIF   ('&E' EQ 'R10' OR '&E' EQ 'R11').GB
          AIF   ('&E' EQ 'R12' OR '&E' EQ 'R13').GB
          AIF   ('&E' EQ 'R14' OR '&E' EQ 'R15').GB
&E        SETC  '12'               SET BASE REGISTER 12
          AIF   ('&OP1' EQ 'DYNAMIC').FD TEST FOR A DYNAMIC S.A.
          DS    0H
          USING *,&E               ESTABLISH BASE REGISTER
&NAME     BASR  15,0               INSURE PGM BASE AND MODE
          BCTR  15,0                ADDRESSABILITY IN ENTRY
          BCTR  15,0                 POINT REGISTER
          STM   14,12,12(13)       SAVE REGISTERS 14 THROUGH 12
          LR    &E,15              LOAD BASE REGISTER
          CNOP  0,4                WORD ALIGNMENT
          BAS   1,FA&SYSNDX        OBTAIN SAVE AREA ADDRESS
&OP1      DC    18F'0',H'0'        18 WORD SAVE AREA AND FLAG
FA&SYSNDX ST    1,8(0,13)          STORE LOWER SAVE AREA POINTER
          AGO   .FE                TO FINISH ROUTINE
.FD       ANOP                     ENTRY POINT
          DS    0H
          USING *,&E               ESTABLISH BASE REGISTER
&NAME     BASR  15,0               INSURE PGM BASE AND MODE
          BCTR  15,0                ADDRESSABILITY IN ENTRY
          BCTR  15,0                 POINT REGISTER
          STM   14,12,12(13)       SAVE REGISTERS 14 THROUGH 12
          LR    &E,15              LOAD BASE REGISTER
          MNOTE  '         GETMAIN RU,LV=74,LOC=&LOC,SP=&SPN#'
          GETMAIN RU,LV=74,LOC=&LOC,SP=&SPN#  ACQUIRE A SAVE AREA
          XC    0(74,1),0(1)       CLEAR ACQUIRED SAVE AREA
          ST    1,8(0,13)          STORE LOWER SAVE AREA POINTER
          MVI   72(1),X'FF'        SET INDICATOR FOR TERME MACRO
.FE       ANOP                     ENTRY POINT
          ST    13,4(0,1)          STORE HIGHER SAVE AREA POINTER
          LM    0,1,20(13)         RESTORE REGISTERS 0 AND 1
          L     13,8(0,13)         LOAD SAVE AREA ADDRESS
          MEXIT
.*
.*     ROUTINE FOR AN UNNAMED SAVE AREA AND ONE BASE REGISTER -
.*     DEFAULT BASE REGISTER 12
.*
.GA       ANOP                     ENTRY POINT
&E        SETC  '12'               SET BASE REGISTER 12
.GB       ANOP                     ENTRY POINT
          AIF   ('&E' EQ '0' OR '&E' EQ '1' OR '&E' EQ '13').GC
          AIF   ('&E' EQ '14' OR '&E' EQ '15').GC
          AIF   ('&E' EQ 'R0' OR '&E' EQ 'R1' OR '&E' EQ 'R13').GC
          AIF   ('&E' EQ 'R14' OR '&E' EQ 'R15').GC
          AGO   .GD
.GC       MNOTE 'WARNING - ILLEGAL BASE REGISTER &OP1 SPECIFIED'
.GD       AIF   ('&E' EQ '').GE
          AGO   .GF
.GE       MNOTE 'ERROR - BLANK BASE REGISTER SPECIFIED'
          MEXIT
.GF       ANOP                     ENTRY POINT
          DS    0H
          USING *,&E               ESTABLISH BASE REGISTER
&NAME     BASR  15,0               INSURE PGM BASE AND MODE
          BCTR  15,0                ADDRESSABILITY IN ENTRY
          BCTR  15,0                 POINT REGISTER
          STM   14,12,12(13)       SAVE REGISTERS 14 THROUGH 12
          LR    &E,15              LOAD BASE REGISTER
          CNOP  0,4                WORD ALIGNMENT
          BAS   1,GA&SYSNDX        OBTAIN SAVE AREA ADDRESS
          DC    18F'0',H'0'        18 WORD SAVE AREA AND TERMEH FLAG
GA&SYSNDX ST    1,8(0,13)          STORE LOWER SAVE AREA POINTER
          AGO   .FE                TO FINISH ROUTINE
          MEND
          MACRO
&NAME     TERMEH &OP1
.*
.*    THE PURPOSE OF THIS MACRO IS TO PROVIDE STANDARD OS LINKAGE.
.*  IT WILL RESTORE REGISTERS 2 THROUGH 14, FREE A DYNAMIC SAVE
.*  AREA WITH A 'FREEMAIN' IF IT WAS ACQUIRED, ESTABLISH LINKAGE FOR
.*  A 'XCTL' IF DESIRED, OR RETURN TO A CALLING CSECT OR PROGRAM.
.*  IT SUPPORTS FULL XA/31 BIT ADDRESSING AND MUST BE USED IN
.*  CONJUNCTION WITH THE 'PRIMEH' MACRO USED FOR PROGRAM ENTRY AND
.*  INITIALIZATION.
.*
.*    DATE - JULY 1997 - REWORKED TO PROVIDE XA ADDRESSING SUPPORT.
.*                       MUST BE USED IN CONJUNCTION WITH 'PRIMEH'.