         MACRO
&NAME    ENTER &A,&B,&C,&TRACEN=,&REG=
         GBLC  &TRACE
         LCLA  &Z
         LCLA  &Y
&NAME    CSECT                         ********************************
         STM   14,12,12(13)            SAVE REG CALLPROG  *
         AIF   (N'&A GT 0).A                                  *
         AGO   .E                                             *
.D       AIF   (N'&B GT 0).B                                  *
         AIF   (N'&A EQ 0 AND N'&C GT 0).MNOTE1     EN MNOTE2
         AIF   (N'&C GT 0).MNOTE2
         AGO   .H
.G       AIF   (N'&A GT 0).K
         MNOTE 'BASEREGISTER 12 ASSUMED'       *
         AGO   .N
.F       AIF   (N'&C GT 0).P
         AGO   .G
.P       AIF   (N'&A GT 0).Q
         AGO   .QQ
.A       BALR  &A,0                    *ESTABLISH BASEREGISTER     *
         USING *,&A                    *ISSUE DISPLACEMENT         *
         AGO   .D
.B       USING *+4096,&B               *ISSUE DISPLACEMENT    *
         AGO   .F
.E       ANOP
&Z       SETA  12
         BALR  &Z,0                    ESTABLISH BASEREGISTER     *
         USING *,&Z                    *ISSUE DISPLACEMENT        *
         AGO   .D
.K       ANOP
&Z       SETA  &A
.N       LA    &B,2048(&Z)             *LOAD BASEREGISTER  *
         LA    &B,2048(&B)             *LOAD BASEREGISTER  *
         AGO   .H
.Q       ANOP
&Z       SETA  &A
.QQ      ANOP
&Y       SETA  &B
         AGO   .W
.MNOTE1  MNOTE 'FIRST  BASEREG 12 ASSUMED'       *
         AGO   .X
.MNOTE2  ANOP
&Z       SETA  &A
.X       MNOTE 'SECOND BASEREG 11 ASSUMED'       *
&Y       SETA  11
         USING *+4096,&Y               ISSUE DISPLACEMENT   *
.W       USING *+8192,&C               ISSUE DISPLACEMENT   *
         LA    &Y,2048(&Z)            *LOAD  BASEREGISTER   *
         LA    &Y,2048(&Y)            *LOAD  BASEREGISTER   *
         LA    &C,2048(&Y)            *LOAD  BASEREGISTER   *
         LA    &C,2048(&C)            *LOAD  BASEREGISTER   *
.H       ANOP
         LA    0,72(0,0)               *LOAD LENGTH          *
         LNR   1,0                     *ANY NEG VALUE IN REG 1     *
         SVC   10                      *ISSUE GETMAIN               *
         ST    1,8(13)                 *STORE FORWARD POINTER  *
         ST    13,4(1)                 *STORE BACKARD POINTER  *
         L     0,20(13)                *RESTORE REGISTER 0    *
         L     1,24(13)                *RESTORE REG 1         *
         L     13,8(13)                SET UP SAVEAREA POINTER*
&TRACE   SETC  '&TRACEN'
         AIF   ('&TRACE' NE 'YES').A98
         OSPDUMP
.A98     ANOP
         AIF   ('&REG' EQ 'NO').A99
         REGEQU
.A99     MEND
