         MACRO
&NAME    OSPDUMP &STORAGE=,&LIST=
         GBLA  &XYZ
         GBLC  &TRACE
         AIF   ('&TRACE' NE 'YES').A99
         AIF   (&XYZ NE 0).A01
***  DCB EN OPEN MACRO-EXPANSIES VOOR OSPDUMP ***
*    - - - - - - - - - - - - - - - - - - - -    *
         B     PDUMPOS1
PDUMPOS  DCB   DDNAME=SYSPDUMP,DSORG=PS,MACRF=(W),                     *
               RECFM=VBA,BLKSIZE=882,LRECL=125
         SPACE
PDUMPOS1 OPEN  (PDUMPOS,(OUTPUT))
&XYZ     SETA  &XYZ+1
.A01     AIF   (T'&STORAGE NE 'O').A02
         AIF   (T'&LIST NE 'O').A03
         AGO   .A04
.A02     ANOP
         SPACE
&NAME    SNAP  DCB=PDUMPOS,SDATA=CB,PDATA=REGS,ID=&XYZ,                *
               STORAGE=&STORAGE
&XYZ     SETA  &XYZ+1
         MEXIT
.A03     ANOP
         SPACE
&NAME    SNAP  DCB=PDUMPOS,SDATA=CB,PDATA=REGS,ID=&XYZ,                *
               LIST=&LIST
&XYZ     SETA  &XYZ+1
         MEXIT
.A04     AIF   (&XYZ LE 1).A05
         AGO   .A06
.A05     MEXIT
.A06     ANOP
         SPACE
         CLOSE (PDUMPOS)
&XYZ     SETA  &XYZ-&XYZ
         MEXIT
.A99     ANOP
&NAME    DS    0H
         CNOP  0,4            GEEN SNAP MACRO-EXPANSIE
         MEND
