         MACRO ,
&NAME    #FREE &T,&A=
         GBLA  &RCPSWS(10)
         GBLC  &RCPPRE
         LCLC  &P,&LABEL
&P       SETC  '&RCPPRE'
&LABEL   SETC  '&NAME'
         AIF   (&RCPSWS(3) EQ 0).E1
         AIF   ('&A' EQ '(0)' OR '&A' EQ '' OR '&A' EQ '(R0)').F2
         AIF   ('&A'(1,1) EQ '(').FR
&LABEL   L     R0,=A(&A)                LOAD STORAGE ADDRESS
&LABEL   SETC  ''
         AGO   .F2
.FR      LR    R0,&A(1)                 LOAD STORAGE ADDRESS
&LABEL   SETC  ''
.F2      ANOP  ,
&LABEL   L     R1,0(,R13)               LOAD MODULE COMM. AREA ADDR
         L     R15,&P.A#FRE-&P.MCA(,R1) LOAD FREE ROUTINE ADDRESS
         BALR  R14,R15                  FREE REQUESTED STORAGE
         MEXIT ,
.E1      MNOTE 8,'LIFO Option Not Specified On BEGIN Macro'
&LABEL   DS    0H
         MEND  ,
