         MACRO ,                            TAPE LABELS
&NAME    #LABELS &DSECT=YES
         AIF   ('&DSECT' NE 'YES').#LBLCS
LBLDSECT DSECT
.#LBLCS  ANOP
DXLBL    DS    0CL80
VOLLABI  DS    CL3                          LABEL IDENTIFIER
VOLNO    DS    CL1                          VOLUME LABEL NUMBER
VOLSERNO DS    CL6                          VOLUME SERIAL NUMBER
VOLSEC   DS    CL1
         DS    0CL10                        RESERVED
VOLVTOC  DS    CL5                          VTOC ADDRESS (CCHHR)
         DS    CL5                          RESERVED
         DS    CL10                         RESERVED
         DS    CL10                         RESERVED
VOLOWNER DS    CL10                         OWNER NAME AND ADDRESS CODE
         DS    CL29                         RESERVED

***********************************************************************
*
*        ANSI VOLUME LABEL AREA
*        (ANSI AND IBM STANDARD LABEL DIFFERENCES)
*
***********************************************************************

         ORG   DXLBL+37
AVOLOWNR DS    CL14                     OWNER IDENTIFICATION
         DS    CL28                     RESERVED
LABSTAND DS    CL1                      LABEL STANDARD LEVEL

***********************************************************************
*
*        FILE LABEL 1 AREA - SEE 'DATA SET LABEL -- FL1'
*
***********************************************************************

         ORG   DXLBL
FL1LABI  DS    CL3                          LABEL IDENTIFIER
FL1NO    DS    CL1                          FILE LABEL NUMBER
FL1ID    DS    CL17                         FILE IDENTIFIER
FL1FILSR DS    CL6                          FILE SERIAL NUMBER
FL1VOLSQ DS    CL4                          VOLUME SEQUENCE NUMBER
FL1FILSQ DS    CL4                          FILE SEQUENCE NUMBER
FL1GNO   DS    CL4                          GENERATION NUMBER
FL1VNG   DS    CL2                          VERS. NUMBER OF GENERATION
FL1CREDT DS    CL6                          CREATION DATE
FL1EXPDT DS    CL6                          EXPIRATION DATE
FL1FSEC  DC    C'0'                         FILE SECURITY INDICATOR
FL1BLKCT DS    CL6                          BLOCK COUNT
FL1SYSCD DS    CL13                         SYSTEM CODE
FL1RES   DS    0CL7                         RESERVED
         DS    CL1                          RESERVED
FL1RES1  DS    CL6                          RESERVED

***********************************************************************
*
*        FILE LABEL 2 AREA - SEE 'DATA SET LABEL -- FL2'
*
***********************************************************************

         ORG   FL1ID
FL2RECFM DS    CL1                          RECORD FORMAT
FL2BLKL  DS    CL5                          BLOCK LENGTH
FL2LRECL DS    CL5                          RECORD LENGTH
FL2DEN   DS    CL1                          DENSITY
FL2FILP  DS    CL1                          FILE POSITION
FL2JSID  DS    0CL17                        JOB/STEP IDENTIFICATION
FL2JOBD  DS    CL8                          JOB IDENTIFICATION
FL2JSSP  DC    C'/'                         SLASH
FL2STEPD DS    CL8                          STEP IDENTIFICATION
FL2TRTCH DS    CL2                          TAPE RECORDING TECHNIQUE
FL2CNTRL DS    CL1                          CARRAIGE CONTROL CHARACTER
         DS    CL1                          RESERVED FOR FUTURE USE
FL2BLKA  DS    CL1                          BLOCK ATTRIBUTE
         DS    CL1                          RESERVED
FL2DRID  DS    0CL7                         TAPE DRIVE ID
         DS    CL2                          RESERVED
FL2ID    DS    CL5                          ID OF CREATING DRIVE
FL2DSIND DS    CL1                          DATA SET INDICATOR FIELD
FL2RES   DS    CL32                         RESERVED
         ORG   ,
         MEND
