         MACRO ,
&NAME    #NULL ,
         AIF   ('&NAME' EQ '').MEND
&NAME    DS    0H
.MEND    MEND
