         MACRO ,
&NAME    RCPDBUMP &L1
         GBLA  &DTUO
         AHI   R15,&L1.                Advance To Next TU Slot
&DTUO    SETA  &DTUO+&L1
         MEND  ,
