*          DATA SET CBT380     AT LEVEL 001 AS OF 06/14/79
         MACRO                                                          00001
&NAME    DEBCHK &CBAD,&TYPE=,&AM=,&MF=O                                 00002
.*                                                                      00003
.*                       *****************                              00004
.*                       *   VARIABLES   *                              00005
.*                       *  DECLARATION  *                              00006
.*                       *****************                              00007
.*                                                                      00008
         LCLB  &AM0,&AM1,&AM2,&AM3,&AM4,&AM5,&AM6,&AM7                  00009
         LCLB  &TYPEA,&TYPED,&TYPEV,&TYPEP,&ERR                         00010
         LCLC  &REG,&LABEL,&AMFC,&AMSC                                  00011
         LCLA  &A                                                       00012
.*                                                                      00013
.*                       **********                                     00014
.*                       * VERIFY *                                     00015
.*                       *  INPUT *                                     00016
.*                       **********                                     00017
.*                                                                      00018
         AIF   ('&MF' EQ 'O').DBCK020   BRANCH IF &MF OMITTED           00019
         AIF   ('&MF' EQ 'L').DBCK040   BRANCH IF &MF=L                 00020
         IHBERMAC 1001,MF,&MF                                           00021
&ERR     SETB  1                                                        00022
.*                                                                      00023
.*                       TEST &CBAD                                     00024
.*                                                                      00025
.DBCK020 AIF   (T'&CBAD NE 'O').DBCK040 BRANCH IF &CBAD SPECIFIED       00026
&ERR     SETB  1                        SET ERROR INDICATOR             00027
         IHBERMAC  2                                                    00028
.*                                                                      00029
.*                       ESTABLISH AND TEST &AM VALUE                   00030
.*                                                                      00031
.DBCK040 AIF   (T'&AM NE 'O').DBCK060   BRANCH IF &AM SPECIFIED         00032
         AIF   ('&MF' NE 'L').DBCK120   BRANCH IF NOT LIST FORM         00033
         IHBERMAC 1006,AM                                               00034
&ERR     SETB  1                                                        00035
         AGO   .DBCK140                                                 00036
.DBCK060 ANOP                                                           00037
&AMFC    SETC  '&AM'(1,1)               FIRST CHARACTER OF &AM          00038
         AIF   ('&AMFC' NE '(').DBCK080 BRANCH IF &AM TO BE CALCULATED  00039
         AIF   ('&MF' EQ 'L').DBCK100   BRANCH IF LIST FORM             00040
         AGO   .DBCK120                 &AM IS VALID                    00041
.DBCK080 ANOP                                                           00042
&AM0     SETB  ('&AM' EQ 'ISAM')                                        00043
&AM1     SETB  ('&AM' EQ 'BDAM')                                        00044
&AM2     SETB  ('&AM' EQ 'SAM' OR '&AM' EQ 'BPAM')                      00045
&AM3     SETB  ('&AM' EQ 'TAM')                                         00046
&AM4     SETB  ('&AM' EQ 'GAM')                                         00047
&AM5     SETB  ('&AM' EQ 'TCAM')                                        00048
&AM6     SETB  ('&AM' EQ 'EXCP')                                        00049
&AM7     SETB  0                                                        00050
         AIF   (&AM0 OR &AM1 OR &AM2 OR &AM3 OR &AM4 OR &AM5 OR &AM6   X00051
               OR &AM7).DBCK120         BRANCH IF &AM VALID             00052
.DBCK100 ANOP                                                           00053
&ERR     SETB  1                        SET ERROR INDICATOR             00054
         IHBERMAC 1001,AM,&AM                                           00055
.*                                                                      00056
.*                       ESTABLISH AND TEST &TYPE VALUE                 00057
.*                                                                      00058
.DBCK120 AIF   ('&MF' EQ 'L').DBCK140   BRANCH IF LIST FORM             00059
&TYPEA   SETB  ('&TYPE' EQ 'ADD')                                       00060
&TYPED   SETB  ('&TYPE' EQ 'DELETE')                                    00061
&TYPEP   SETB  ('&TYPE' EQ 'PURGE')                                     00062
.*                                      VERIFY IS DEFAULT TYPE          00063
&TYPEV   SETB  ('&TYPE' EQ 'VERIFY' OR T'&TYPE EQ 'O')                  00064
.*                                      BRANCH IF NO ERROR              00065
         AIF   (&TYPEA OR &TYPED OR &TYPEV OR &TYPEP).DBCK140           00066
         IHBERMAC 1001,TYPE,&TYPE                                       00067
         AGO   .DBCK160                 EXIT BECAUSE OF ERROR           00068
.DBCK140 AIF   (NOT &ERR).DBCK220       BRANCH IF NO SYNTAX ERRORS      00069
.*                                      GENERATE NAME IF NO CODE GENNED 00070
.*                                                                      00071
.*                       ERROR EXIT                                     00072
.*                                                                      00073
.DBCK160 AIF   ('&NAME' EQ '').DBCK200  DON'T GENERATE NAME IF NULL     00074
         AIF   ('&MF' NE 'L').DBCK180   BRANCH IF NOT LIST FORM         00075
&NAME    DS    0C                                                       00076
         MEXIT                                                          00077
.DBCK180 ANOP                                                           00078
&NAME    DS    0H                                                       00079
.DBCK200 MEXIT                                                          00080
.*                                                                      00081
.*                       ************                                   00082
.*                       * GENERATE *                                   00083
.*                       *   CODE   *                                   00084
.*                       ************                                   00085
.*                                                                      00086
.DBCK220 ANOP                                                           00087
&LABEL   SETC  '&NAME'                  SET LABEL FOR FIRST GENERATED   00088
         AIF   ('&MF' EQ 'L').DBCK340   BRANCH IF LIST FORM             00089
.*                                      LINE OF CODE                    00090
.*                                                                      00091
.*                       FUNCTION TYPE VALUE                            00092
.*                                                                      00093
.*                         VERIFY       0                               00094
.*                         ADD          1                               00095
.*                         DELETE       2                               00096
.*                         PURGE        3                               00097
.*                                                                      00098
         AIF   (&TYPEV).DBCK240         BRANCH IF VERIFY                00099
&A       SETA  &TYPEA*1+&TYPED*2+&TYPEP*3 SET AM TYPE                   00100
&LABEL   LA    0,&A                     LOAD TYPE VALUE                 00101
&LABEL   SETC  ''                       LABEL NOT TO BE GENERATED AGAIN 00102
.DBCK240 AIF   (T'&AM NE 'O').DBCK260   BRANCH IF &AM SPECIFIED         00103
         AIF   (NOT &TYPEV).DBCK420     BRANCH IF ADD OR DELETE TYPE    00104
&LABEL   SR    0,0                      LOAD TYPE AND AM VALUE          00105
         AGO   .DBCK420                                                 00106
.*                                                                      00107
.*                       ACCESS METHOD TYPE VALUE                       00108
.*                                                                      00109
.*                          ISAM        80                              00110
.*                          BDAM        40                              00111
.*                          SAM/BPAM    20                              00112
.*                          TAM         10                              00113
.*                          GAM         08                              00114
.*                          TCAM        04                              00115
.*                          EXCP        02                              00116
.*                          OMITTED     00                              00117
.*                                                                      00118
.DBCK260 ANOP                                                           00119
&REG     SETC  '0'                      INITIALIZE TO REG 0             00120
         AIF   (&TYPEV).DBCK280         BRANCH IF TYPE IS VERIFY        00121
&REG     SETC  '15'                     USE REG 15 IF ADD OR DELETE     00122
.DBCK280 AIF   ('&AMFC' NE '(').DBCK340 BRANCH IF &AM TO BE CALCULATED  00123
&AMSC    SETC  '&AM'(2,1)               SECOND CHARACTER OF &AM         00124
         AIF   ('&AMSC' EQ '(').DBCK320 BRANCH IF &AM A REGISTER        00125
.*                                                                      00126
.*                       &AM VALUE TO BE INSERTED FROM AN ADDRESS       00127
.*                                                                      00128
         AIF   (NOT &TYPEV).DBCK300     BRANCH IF NOT VERIFY            00129
&LABEL   SR    0,0                      LOAD TYPE VALUE                 00130
&LABEL   SETC  ''                       LABEL NOT TO BE GENERATED AGAIN 00131
.DBCK300 ANOP                                                           00132
&AMFC    SETC  '&AM(1)'                 ADDRESS OF AM VALUE             00133
&LABEL   ICM   0,8,&AMFC                INSERT AM VALUE IN HI BYTE      00134
         AGO   .DBCK420                                                 00135
.*                                                                      00136
.*                       &AM VALUE IN A REGISTER                        00137
.*                                                                      00138
.DBCK320 ANOP                                                           00139
&A       SETA  K'&AM-4                  LENGTH OF REGISTER              00140
&AMFC    SETC  '&AM'(3,&A)              REGISTER CONTAINING AM VALUE    00141
&LABEL   LR    &REG,&AMFC               LOAD AM VALUE                   00142
         AGO   .DBCK380                 GO TO SHIFT TO HIGH BYTE        00143
.*                                                                      00144
.*                       &AM VALUE TO BE CALCULATED                     00145
.*                                                                      00146
.DBCK340 ANOP                                                           00147
&A       SETA  128*&AM0+64*&AM1+32*&AM2+16*&AM3+8*&AM4+4*&AM5+2*&AM6    00148
         AIF   ('&MF' NE 'L').DBCK360   BRANCH IF NOT LIST FORM         00149
&NAME    DC    AL1(&A)                                                  00150
         MEXIT                                                          00151
.DBCK360 ANOP                                                           00152
&LABEL   LA    &REG,&A                  LOAD AM VALUE                   00153
.DBCK380 SLL   &REG,24                  SHIFT TO HIGH ORDER BYTE        00154
.DBCK400 AIF   (&TYPEV).DBCK420                                         00155
         OR    0,15                     OR AM TYPE INTO REGISTER 0      00156
.*                                                                      00157
.*                       LOAD CB ADDRESS AND SVC ROUTING ID             00158
.*                                                                      00159
.DBCK420 IHBINNRA &CBAD                 LOAD CBAD INTO REGISTER 1       00160
         LA    15,2                     DEBCHK SVC ID                   00161
         SVC   117                                                      00162
         MEND                                                           00163
*          DATA SET CBT380T    AT LEVEL 001 AS OF 06/09/77              00164
DEBE     TITLE 'OPERATING SYSTEM/360 MULTIFUNCTION UTILITY - VERSION 2' 00165
OSDEBE   START 0                                                        00166
*********************************************************************** 00167
*                                                                       00168
*  THE PURPOSE OF OSDEBE IS TO PROVIDE THE USER OF 360 OPERATING        00169
*  SYSTEM THE FLEXIBILITY OF THE ORIGINAL DEBE.  FLEXIBILITY CAN        00170
*  ONLY BE OBTAINED BY THE ELIMINATION OF DD CARDS.  ALL FUNCTIONS      00171
*  WHICH ARE AVAILABLE WITH BPS DEBE ARE PROVIDED IN OSDEBE.            00172
*  IN ADDITION, MANY NEW FEATURES HAVE BEEN ADDED; FOR A COMPLETE       00173
*  DESCRIPTION, SEE THE OSDEBE PROGRAM MANUAL.                          00174
*                                                                       00175
*********************************************************************** 00176
*                                                                       00177
*  CORE REQUIREMENTS - ABOUT 16K (K=1024), 8K OF WHICH IS USED          00178
*  AS AN I/O AREA FOR TAPE OPERATIONS.                                  00179
*                                                                       00180
*  ERROR RECOVERY - THE OPERATING SYSTEM PERFORMS ALL STANDARD          00181
*  ERROR RECOVERY.  IF IT CANNOT RECOVER FROM AN ERROR, OSDEBE          00182
*  WILL NOT EVEN TRY.                                                   00183
*                                                                       00184
*  ALL REPLIES TO OSDEBE ARE OF THE WTOR FORMAT,                        00185
*          REPLY 00,'TP'                                                00186
*  WHENEVER ANY INFORMATION IS REQUESTED BY OSDEBE, A REPLY OF          00187
*  'EJ' WILL TERMINATE THE SUBROUTINE OF OSDEBE.  A REPLY OF 'EJ'       00188
*  IN RESPONSE TO THE REQUEST FOR THE PROGRAM ID WILL TERMINATE         00189
*  OSDEBE AND CONTROL IS RETURNED TO THE OPERATING SYSTEM.              00190
*                                                                       00191
*  ONCE A ROUTINE IS RUNNING IN OSDEBE, IT CAN ONLY BE TERMINATED       00192
*  BY CANCELLING THE JOB, AND THE JOB MUST BE RESCHEDULED AGAIN.        00193
*  AN ALTERNATIVE TO CANCELLING THE JOB IS TO CAUSE AN I/O ERROR        00194
*  ON ONE OF THE UNITS BEING USED.  AN I/O ERROR WILL CAUSE THE         00195
*  SUBROUTINE OF OSDEBE TO TERMINATE, BUT OSDEBE WILL STILL BE          00196
*  IN CONTROL.                                                          00197
*                                                                       00198
*********************************************************************** 00199
         EJECT                                                          00200
*                                                                       00201
*  INITIALIZATION                                                       00202
*                                                                       00203
         USING  OSDEBE,15                                               00204
         B     AROUND                                                   00205
         DC    C'OSDEBE-REVISED: CONTACT SYSTEMS PROGRAMMING '          00206
         DC    C'IF ANY PROBLEMS.'                                      00207
K4096    DC    F'4096'                                                  00208
AROUND   DS    0H                                                       00209
         SAVE  (14,12)                                                  00210
BEGIN    BALR  12,0                                                     00211
         USING *,12,9                                                   00212
         LR    9,12                                                     00213
         A     9,K4096                                                  00214
BEGIN1   EQU   *                                                        00215
         LA    14,SAVEAREA                                              00216
         ST    13,SAVEAREA+4                                            00217
         ST    14,8(0,13)                                               00218
         LR    13,14                                                    00219
         MODESET KEY=ZERO,MODE=SUP     GET INTO SUP STATE        DAL    00220
         GETMAIN R,LV=564,SP=252                                        00221
         LR    8,1                                                      00222
         LA    3,TDAREA                                                 00223
         LA    3,80(3)  GET ADDRESS OF WORKAREA SKELETONS               00224
         MVC   0(232,8),0(3)                                            00225
         MVC   232(232,8),232(3)                                        00226
         USING WORKAREA,8                                               00227
         LA    3,INDEB                                                  00228
         ST    3,AET1                                                   00229
         LA    3,APPEND                                                 00230
         ST    3,AET2                                                   00231
         ST    3,AET3                                                   00232
         ST    3,AET4                                                   00233
         ST    3,AET5                                                   00234
         ST    3,AET6                                                   00235
         ST    3,AET14                                                  00236
         ST    3,AET15                                                  00237
         ST    3,AET16                                                  00238
         ST    3,AET17                                                  00239
         ST    3,AET18                                                  00240
         LA    3,OUTDEB                                                 00241
         ST    3,AET7-1                                                 00242
         MVI   AET7-1,X'04'                                             00243
         ST    3,AET13                                                  00244
         LA    3,INDCB                                                  00245
         ST    3,AET8-1                                                 00246
         MVI   AET8-1,X'0F'                                             00247
         ST    3,AET12                                                  00248
         LA    3,INIOVEC                                                00249
         ST    3,AET9-1                                                 00250
         MVI   AET9-1,X'02'                                             00251
         LA    3,INECB                                                  00252
         ST    3,AET10-1                                                00253
         MVI   AET10-1,X'7F'                                            00254
         LA    3,INCCW                                                  00255
         ST    3,AET11                                                  00256
         LA    3,OUTDCB                                                 00257
         ST    3,AET19-1                                                00258
         MVI   AET19-1,X'0F'                                            00259
         ST    3,AET23                                                  00260
         LA    3,OUTIOVEC                                               00261
         ST    3,AET20-1                                                00262
         MVI   AET20-1,X'02'                                            00263
         LA    3,OUTECB                                                 00264
         ST    3,AET21-1                                                00265
         MVI   AET21-1,X'7F'                                            00266
         LA    3,OUTCCW                                                 00267
         ST    3,AET22                                                  00268
         SPACE 5                                                        00269
*  GET CVT POINTER                                                      00270
         L     3,16                                                     00271
*  GET POINTER TO THE TCB POINTERS                                      00272
         L     2,0(0,3)                                                 00273
*  GET TCB POINTER                                                      00274
         L     3,4(0,2)                                                 00275
*  GET PROTECT KEY FROM TCB FOR THE DEB'S                               00276
         OC    INDEB+24(1),28(3)                                        00277
         OC    OUTDEB+24(1),28(3)                                       00278
*  GET TCB ADDRESS FOR THE DEB'S                                        00279
         ST    3,INDEB                                                  00280
         ST    3,OUTDEB                                                 00281
         L     11,8(,3)                ADDR OF TCB DEB QUEUE     DAL    00282
         LA    11,0(,11)               CLR HIGH BYTE NATCH       DAL    00283
         LTR   11,11                   NO DEBS ON QUEUE                 00284
         BNZ   CHKDEBAD                NO CHK DEBS FOR NEXT      DAL    00285
         IC    15,8(,3)                SAVE BYTE                 DAL    00286
         LA    1,INDEB                 ADR OF OUR FIRST DEB      DAL    00287
         ST    1,8(,3)                 STORE IT IN TCB           -AL    00288
         STC   15,8(,3)                RESTORE BYTE                     00289
         B     DEBCHK                  GO DO DEBCHK MACRO        DAL    00290
CHKDEBAD L     15,4(,11)               ADDR NEXT DEB                    00291
         LA    15,0(,15)               CLR HIGH                         00292
         LTR   15,15                   END OF CHAIN              DAL    00293
         BZ    STOREDEB                YES STORE DEB ADDR IN DEB DAL    00294
         LR    11,15                   NO CHK NEXT DEB                  00295
         B     CHKDEBAD                                                 00296
STOREDEB LA    1,INDEB                 ADDR OUR DEB                     00297
         IC    15,4(,11)               SAVE BYTE                 DAL    00298
         ST    1,4(,11)                STORE INTO PREV LAST DEB  DAL    00299
         STC   15,4(,11)               RETURN BYTE TO WHENCE T   DAL    00300
DEBCHK   EQU   *                                                        00301
         LA    11,OUTDCB               GET DCB ADDR              DAL    00302
         DEBCHK (11),TYPE=ADD          PUT DEB ON DEB TABLE      DAL    00303
         LA    11,INDCB                GET DCB ADDR              DAL    00304
         DEBCHK (11),TYPE=ADD          PUT DEB ON DEB TABLE      DAL    00305
     SPACE 2                                                            00306
*   GET SUBPOOL WORK AREA FOR TAPE I/O OPERATIONS                       00307
     SPACE 2                                                            00308
         GETMAIN  R,LV=32768,SP=0                                       00309
         ST    1,TAPEAREA        STORE ADDRESS OF TAPE WORK I/O AREA    00310
     SPACE 2                                                            00311
*  STORE THE ADDRESS IN THE TWO   TAPE CCW'S                            00312
     SPACE 2                                                            00313
         MVC   TDINCCW+1(3),TAPEAREA+1                                  00314
         MVC   TTCCWOUT+1(3),TAPEAREA+1                                 00315
         EJECT                                                          00316
*                                                                       00317
*  MAIN PROGRAM                                                         00318
*  ALL ROUTINES RETURN HERE WHEN THEY ARE FINISHED.                     00319
*                                                                       00320
ASKAGN   EQU   *                                                        00321
         NI    INIOB,X'3F'         TURN OFF CHAIN FLAGS IN IOB'S        00322
         NI    OUTIOB,X'3F'                                             00323
         SPACE 2                                                        00324
         NI    TD3+1,X'0F'   RESET SWITCHES SET IN TP ROUTINE           00325
         NI    TD6+1,X'0F'                                              00326
         SPACE 3                                                        00327
         WTOR  'DEBE: ENT PROG ID - XX',ID,2,REPLYECB                   00328
         BAL   11,WAITANS    GO WAIT FOR A REPLY                        00329
         OC    ID(2),BLANKS                                             00330
         CLC   ID(2),=C'EJ'  IS SHE DONE? - EOJ                         00331
         BE    EOJ           YES, RETURN TO THE OPERATING SYSTEM        00332
         CLC   ID(2),=C'BF'  BACKSPACE A FILE                           00333
         BE    BF                                                       00334
         CLC   ID(2),=C'BS'  BACKSPACE A NUMBER OF RECORDS              00335
         BE    BS                                                       00336
         CLC   ID(2),=C'BT'  BLOCK CARD IMAGE ON TAPE                   00337
         BE    BT                                                       00338
         CLC   ID(2),=C'CC'  CARD TO CARD                               00339
         BE    CC                                                       00340
         CLC   ID(2),=C'CP'  CARD TO PRINTER                            00341
         BE    CP                                                       00342
         CLC   ID(2),=C'CT'  CARD TO TAPE                               00343
         BE    CT                                                       00344
         CLC   ID(2),=C'DP'  LIST TAPE TO PRINTER                       00345
         BE    DP                                                       00346
         CLC   ID(2),=C'HD'  TAPE LABEL ONTO SYSTEM CONSOLE             00347
         BE    HD                                                       00348
         CLC   ID(2),=C'KC'  COUNT CARDS                                00349
         BE    KC                                                       00350
         CLC   ID(2),=C'KR'  COUNT RECORDS                              00351
         BE    KR                                                       00352
         CLC   ID(2),=C'OX'  BAD                                        00353
         BE    BADID                                                    00354
         CLC   ID(2),=C'RU'  REWIND AND UNLOAD                          00355
         BE    RU                                                       00356
         CLC   ID(2),=C'RW'  REWIND                                     00357
         BE    RW                                                       00358
         CLC   ID(2),=C'SF'  SPACE FORWARD FILE                         00359
         BE    SF                                                       00360
         CLC   ID(2),=C'SR'  SKIP # OF RECORDS FORWARD                  00361
         BE    SR                                                       00362
         CLC   ID(2),=C'TC'  TAPE TO CARD                               00363
         BE    TC                                                       00364
         CLC   ID(2),=C'TD'  TAPE TO PRINT HEX                          00365
         BE    TD                                                       00366
         CLC   ID(2),=C'TM'  WRITE TAPE MARK                            00367
         BE    TM                                                       00368
         CLC   ID(2),=C'TP'  TAPE TO PRINT HEX                          00369
         BE    TP                                                       00370
         CLC   ID(2),=C'TT'  TAPE TO TAPE                               00371
         BE    TT                                                       00372
         CLC   ID(2),=C'WT'  WRITE TO TAPE MARK                         00373
         BE    WT                                                       00374
         CLC   ID(2),=C'WL'  WRITE A LABEL                              00375
         BE    WL                                            *BW 7/76*  00376
*        CLC   ID(2),=C'XP'                                             00377
*        BE    BADID                                                    00378
*        CLC   ID(2),=C'XR'                                             00379
*        BE    BADID                                                    00380
*        CLC   ID(2),=C'XS'                                             00381
*        BE    BADID                                                    00382
*        CLC   ID(2),=C'XA'                                             00383