         MACRO
&ID      $VGET &PARMS
         LCLC  &NDX
         LCLC  &NAME,&LEN,&AREA
         LCLC  &NM,&LN,&AR
         LCLC  &NMK,&LNK,&ARK
         LCLB  &NMB,&LNB,&ARB
&NDX     SETC  '&SYSNDX'
         AIF   (N'&PARMS EQ 3).OK1
         MNOTE 8,'INVALID NUMBER OF PARAMETERS SPECIFIED'
         MEXIT ,
.*
.OK1     ANOP  ,
&NAME    SETC  '&PARMS(1)'
&LEN     SETC  '&PARMS(2)'
&AREA    SETC  '&PARMS(3)'
.*
         AIF   ('&NAME'(1,1) EQ '''').NM1
&NM      SETC  '&NAME'
         AGO   .NM2
.NM1     ANOP  ,
&NM      SETC  'IHB2&NDX'
&NMK     SETC  '&NAME'
&NMB     SETB  1
.NM2     ANOP  ,
.* * * * * * * * * * * * * * * * * * * * * * * * * * * * * * * * *
         AIF   ('&LEN'(1,1) EQ '''').LN1
         AIF   ('&LEN'(1,1) GE '0').LN1A
&LN      SETC  '&LEN'
         AGO   .LN2
.LN1     ANOP  ,
&LN      SETC  'IHB3&NDX'
&LNK     SETC  '&LEN'
&LNB     SETB  1
         AGO   .LN2
.LN1A    ANOP  ,
&LN      SETC  'IHB3&NDX'
&LNK     SETC  '''&LEN'''
&LNB     SETB  1
         AGO   .LN2
.LN2     ANOP  ,
.* * * * * * * * * * * * * * * * * * * * * * * * * * * * * * * * *
         AIF   ('&AREA'(1,1) EQ '''').AR1
&AR      SETC  '&AREA'
         AGO   .AR2
.AR1     ANOP  ,
         MNOTE 8,'INVALID OPERAND SPECIFIED FOR AREA'
         MEXIT ,
.AR2     ANOP  ,
.* * * * * * * * * * * * * * * * * * * * * * * * * * * * * * * * *
         CNOP  0,4
&ID      BAL   1,IHB1&SYSNDX
         DC    A(&NM)
         DC    A(&LN)
         DC    A(&AR)
         AIF   (&NMB EQ 0).GN1
IHB2&NDX DC    CL8&NMK
.GN1     AIF   (&LNB EQ 0).GN2
IHB3&NDX DC    F&LNK
.GN2     AIF   (&ARB EQ 0).GN3
IHB4&NDX DC    A(&ARK)
.GN3     ANOP  ,
IHB1&NDX DS    0H
         L     15,=V(VGET)
         BALR  14,15
         MEND  ,
