         MACRO
&NAME    DYNSPACE &TYPE
.*
.*    THIS IS AN INNER MACRO TO ALLOC/FREE.
.*    IT IS CALLED TO   A) NAME AN AREA FOR THE PARMLIST
.*                      B) LOG THE VARIOUS AMOUNTS NEEDED BY
.*                         EACH, REMEMBERING THE LARGEST.
.*                      C) GENERATING A DS FOR THE LARGEST AMOUNT.
.*    THE FIRST TWO FUNCTIONS ARE INVOKED BY ALLOC/FREE MACROS ONLY,
.*    AND THE THIRD IS USED BY THE PROGRAMMER, EITHER EXPLICITLY,
.*    OR BY BEGINWKA, IF THE LATTER IS USED.
.*
.*     TO INVOKE THE NAMING FUNCTION, ALLOC/FREE GENERATE
.*     NAME DYNSPACE
.*     NOTE. THE NAMING OPERATION ONLY GENERATES A NAME ON THE
.*     FIRST CALL IN THE ASSEMBLY. THE NAME REMAINS THE SAME UNTIL
.*     DYNSPACE IS CALLED TO EXPAND INTO A DS.
.*
.*     THE SECOND FUNCTION IS INVOKED BY THE MACRO CALL
.*          DYNSPACE ADD
.*     (NO NAME FIELD AND ONE OPERAND)
.*     IT USES THE GLOBAL VARIABLES &DTUO AND &DTUPO TO CALCULATE
.*     THE SPACE FOR THIS REQUEST, AND UPDATES &DYNSPQ ONLY IF THE
.*     CURRENT REQUEST IS FOR A GREATER AMOUNT
.*
.*     THE THIRD FUNCTION IS INVOKED BY CALLING DYNSPACE WITH NO
.*     NAME OR OPERAND FIELD.
.*     THIS EXPANDS INTO A DEFINE STORAGE, CLEARS THE DYNSPACE NAME
.*     GLOBAL SETC, AND THE &DYNSPQ GLOBAL SETA.
.*     THUS, THE MACRO IS SERIALLY REUSABLE IN ALL FUNCTIONS.
.*
         GBLA  &DYNSPQ,&DTUO,&DTUPO,&RCPDYN
         GBLC  &DYNP,&DYNSP
         LCLA  &I
         AIF   ('&NAME' NE '').NAME
         AIF   ('&TYPE' EQ '').ALLOC
.*   THE ACCUMULATE FUNCTION IS REQUIRED
&I       SETA  24+&DTUO+&DTUPO         GET AMOUNT FOR THIS REQUEST
         AIF   (&I LE &DYNSPQ).EXIT    IF CURRENT < MAX, EXIT
&DYNSPQ  SETA  &I                      ELSE UPDATE CURRENT MAXIMUM
         MEXIT
.NAME    AIF   ('&DYNSP' NE '').EXIT   IF NAME ALREADY EXISTS, EXIT
&DYNSP   SETC  'DYNSP&RCPDYN'           ELSE GENERATE A NAME
.EXIT    MEXIT
.ALLOC   AIF   ('&DYNSP' EQ '').EXIT
*
**     RESERVE SPACE FOR ALLOC/FREE MACRO WORK AREA
*
&DYNSP   DS    0F,CL&DYNSPQ            RESERVE SPACE
O&DYNSP  DS    0F,CL&DYNSPQ            RESERVE SPACE
O&DYNSP.O OUTADD MF=L
&DYNSP   SETC  ''                      SET MAX QUANTITY TO 0
&DYNSPQ  SETA 0
         MEND
         MACRO
         RCPBTU &KEY,&NUM,&PAR
         LCLA  &L
.*
.*  INNER MACRO FOR ALLOC, TO GENERATE TEXT UNITS ENTERED
.*  IN QUOTES
.*
&L       SETA  K'&PAR-2                GET LENGTH OF TEXT UNIT
         MVI   S99TUKEY+1,&KEY         SET TEXT UNIT KEY
         MVI   S99TUNUM+1,&NUM         SET NUMBER FIELD
         MVI   S99TULNG+1,&L           MOVE IN LENGTH
         MVC   S99TUPAR(&L.),=C&PAR    MOVE IN TEXT UNIT
&L       SETA  &L+6
         AIF   (&L/2 EQ (&L+1)/2).LOK
&L       SETA  &L+1
.LOK     RCPDINC &L
         MEND
         MACRO
         RCPDCBR &LRECL=,&BLKSIZE=,&RECFM=,&DEN=,&DSORG=,&KEYLEN=
.*
.*       INNER MACRO FOR ALLOC/FREE WRITTEN BY J. SAVIT, 12/12/80
.*
         GBLC  &DYNP,&RCPTYPE
         LCLA  &DENVAL            ENCODED DENSITY BYTE
         LCLA  &DSOVAL            ENCODED DSORG
         LCLA  &SCAN              FOR SCANNING RECORD FORMAT CHARS
         LCLA  &FORMAT            ENCODED RECORD FORMAT BYTE
         AIF   ('&KEYLEN' EQ '').TLRECL
         SPACE 1
***********************************************************************
**       KEYLEN TEXT UNIT         (J. SAVIT, 12/80)                  **
***********************************************************************
         RCPNTU DALKYLEN,1,&KEYLEN
.TLRECL  AIF   ('&LRECL' EQ '').TBLKSIZ
         SPACE 1
***********************************************************************
**       LRECL TEXT UNIT          (J. SAVIT, 12/80)                  **
***********************************************************************
         RCPNTU DALLRECL,2,&LRECL
.TBLKSIZ AIF   ('&BLKSIZE' EQ '').TRECFM
         SPACE 1
***********************************************************************
**       BLKSIZE TEXT UNIT        (J. SAVIT, 12/80)                  **
***********************************************************************
         RCPNTU DALBLKSZ,2,&BLKSIZE
.TRECFM  AIF   ('&RECFM' EQ '').TDEN
         SPACE 1
***********************************************************************
**       RECFM TEXT UNIT          (J. SAVIT, 12/80)                  **
***********************************************************************
&SCAN    SETA  K'&RECFM           LENGTH OF RECORD FORMAT SPEC
&FORMAT  SETA  0                  RECORD FORMAT BYTE
.RECFMA  AIF   (&SCAN EQ 0).RECFMX LOOP OVER CHARACTERS IN RECFM
&C       SETC  '&RECFM'(&SCAN,1)  ISOLATE ELEMENT
         AIF   ('&C' NE 'F').RECFMB IF NOT FIXED LENGTH
&FORMAT  SETA  &FORMAT+8*16       SET FIXED LENGTH BIT
         AGO   .RECFMK            LOOP OVER RECFM
.RECFMB  AIF   ('&C' NE 'V').RECFMC IF NOT VARIABLE LENGTH
&FORMAT  SETA  &FORMAT+4*16       SET VARIABLE LENGTH BIT
         AGO   .RECFMK            LOOP OVER RECFM
.RECFMC  AIF   ('&C' NE 'U').RECFMD IF NOT UNDEFINED LENGTH
&FORMAT  SETA  &FORMAT+12*16      SET UNDEFINED BITS
         AGO   .RECFMK            LOOP OVER RECFM
.RECFMD  AIF   ('&C' NE 'B').RECFME IF NOT BLOCKED
&FORMAT  SETA  &FORMAT+16         SET BLOCKED FILE BIT
         AGO   .RECFMK
.RECFME  AIF   ('&C' NE 'S').RECFMF IF NOT STANDARD LENGTH
&FORMAT  SETA  &FORMAT+8          SET STANDARD BIT
         AGO   .RECFMK
.RECFMF  AIF   ('&C' NE 'A').RECFMZ IF NOT ASA CONTROL CHAR
&FORMAT  SETA  &FORMAT+4
         AGO   .RECFMK
.RECFMZ  MNOTE 4,'*** UNRECOGNISED OR UNSUPPORTED RECORD FORMAT &C ***'
.RECFMK  ANOP  ,
&SCAN    SETA  &SCAN-1
         AGO   .RECFMA
.RECFMX  RCPNTU DALRECFM,1,&FORMAT
.TDEN    AIF   ('&DEN' EQ '').TDSORG
         SPACE 1
***********************************************************************
**       TAPE DENSITY TEXT UNIT   (J. SAVIT, 12/12/80)               **
***********************************************************************
         RCPTYPE &DEN             ANALYZE PARAMETER
         AIF   ('&RCPTYPE' EQ 'N').DENB NUMERIC DCB
         MNOTE 4,'*** DENSITY MUST BE 0,1,2,3 OR 4, LIKE IN JCL ***'
         MNOTE *,'*** DEN IGNORED ***'
         AGO   .TDSORG
.DENB    ANOP  ,
&DENVAL  SETA  0                  CLEAR DENSITY BYTE COUNTER
         AIF   ('&DEN' EQ '0').DEN0 DENSITY 0?
         AIF   ('&DEN' EQ '1').DEN1 DENSITY 1?
         AIF   ('&DEN' EQ '2').DEN2 DENSITY 2?
         AIF   ('&DEN' EQ '3').DEN3 DENSITY 3?
         AIF   ('&DEN' EQ '4').DEN3 DENSITY 4?
         MNOTE 4,'*** INVALID DENSITY-PARAMETER IGNORED ***'
         AGO   .TDSORG            TRY NEXT PARAMETER INSTEAD
.DEN4    ANOP  ,
&DENVAL  SETA  16
.DEN3    ANOP  ,
&DENVAL  SETA  &DENVAL+64
.DEN2    ANOP  ,
&DENVAL  SETA  &DENVAL+64
.DEN1    ANOP  ,
&DENVAL  SETA  &DENVAL+64
.DEN0    ANOP  ,
&DENVAL  SETA  &DENVAL+03
         RCPNTU DALDEN,1,&DENVAL
.TDSORG  AIF   ('&DSORG' EQ '').EXIT
         SPACE 1
***********************************************************************
**       DSORG TEXT UNIT          (J. SAVIT, 12/12/80)               **
***********************************************************************
         AIF   ('&DSORG' EQ 'PO').DSORGPO
         AIF   ('&DSORG' EQ 'PS').DSORGPS
         AIF   ('&DSORG' EQ 'DA').DSORGDA
         MNOTE 8,'*** UNSUPPORTED DSORG &DSORG ***'
         MEXIT
.DSORGPO ANOP  ,
&DSOVAL  SETA  2*16*16
         AGO   .DSORGX
.DSORGPS ANOP  ,
&DSOVAL  SETA  4*16*16*16
         AGO   .DSORGX
.DSORGDA ANOP  ,
&DSOVAL  SETA  2*16*16*16
.DSORGX  RCPNTU DALDSORG,2,&DSOVAL
.EXIT    MEND
         MACRO
         RCPDDCB &LRECL=,&BLKSIZE=,&RECFM=,&DEN=,&DSORG=,&KEYLEN=,     C
               &BUFNO=
.*
.*
         GBLC  &DYNP,&RCPTYPE
         LCLA  &DENVAL            ENCODED DENSITY BYTE
         LCLA  &DSOVAL            ENCODED DSORG
         LCLA  &SCAN              FOR SCANNING RECORD FORMAT CHARS
         LCLA  &FORMAT            ENCODED RECORD FORMAT BYTE
         LCLC  &C                 RECFM
         AIF   ('&KEYLEN' EQ '').TLRECL
         SPACE 1
***********************************************************************
**       KEYLEN TEXT UNIT
***********************************************************************
         RCPNTU DALKYLEN,1,&KEYLEN
.TLRECL  AIF   ('&LRECL' EQ '').TBLKSIZ
         SPACE 1
***********************************************************************
**       LRECL TEXT UNIT
***********************************************************************
         RCPNTU DALLRECL,2,&LRECL
.TBLKSIZ AIF   ('&BLKSIZE' EQ '').TBUFNO
         SPACE 1
***********************************************************************
**       BLKSIZE TEXT UNIT
***********************************************************************
         RCPNTU DALBLKSZ,2,&BLKSIZE
.TBUFNO  AIF   ('&BUFNO' EQ '').TRECFM
         SPACE 1
***********************************************************************
**       BUFNO   TEXT UNIT
***********************************************************************
         RCPNTU DALBUFNO,1,&BUFNO
.TRECFM  AIF   ('&RECFM' EQ '').TDEN
         SPACE 1
***********************************************************************
**       RECFM TEXT UNIT
***********************************************************************
         AIF   ('&RECFM'(1,1) NE '(').NOREG
         RCPRECFM RECFM=&RECFM
         AGO   .TDEN
.NOREG   ANOP
&SCAN    SETA  K'&RECFM           LENGTH OF RECORD FORMAT SPEC
&FORMAT  SETA  0                  RECORD FORMAT BYTE
.RECFMA  AIF   (&SCAN EQ 0).RECFMX LOOP OVER CHARACTERS IN RECFM
&C       SETC  '&RECFM'(&SCAN,1)  ISOLATE ELEMENT
         AIF   ('&C' NE 'F').RECFMB IF NOT FIXED LENGTH
&FORMAT  SETA  &FORMAT+8*16       SET FIXED LENGTH BIT
         AGO   .RECFMK            LOOP OVER RECFM
.RECFMB  AIF   ('&C' NE 'V').RECFMC IF NOT VARIABLE LENGTH
&FORMAT  SETA  &FORMAT+4*16       SET VARIABLE LENGTH BIT
         AGO   .RECFMK            LOOP OVER RECFM
.RECFMC  AIF   ('&C' NE 'U').RECFMD IF NOT UNDEFINED LENGTH
&FORMAT  SETA  &FORMAT+12*16      SET UNDEFINED BITS
         AGO   .RECFMK            LOOP OVER RECFM
.RECFMD  AIF   ('&C' NE 'B').RECFME IF NOT BLOCKED
&FORMAT  SETA  &FORMAT+16         SET BLOCKED FILE BIT
         AGO   .RECFMK
.RECFME  AIF   ('&C' NE 'S').RECFMF IF NOT STANDARD LENGTH
&FORMAT  SETA  &FORMAT+8          SET STANDARD BIT
         AGO   .RECFMK
.RECFMF  AIF   ('&C' NE 'A').RECFMM IF NOT ASA CONTROL CHAR
&FORMAT  SETA  &FORMAT+4
         AGO   .RECFMK
.RECFMM  AIF   ('&C' NE 'M').RECFMZ IF NOT MACHINE CODE
&FORMAT  SETA  &FORMAT+2
         AGO   .RECFMK
.RECFMZ  MNOTE 4,'*** UNRECOGNISED OR UNSUPPORTED RECORD FORMAT &C ***'
.RECFMK  ANOP  ,
&SCAN    SETA  &SCAN-1
         AGO   .RECFMA
.RECFMX  RCPNTU DALRECFM,1,&FORMAT
.TDEN    AIF   ('&DEN' EQ '').TDSORG
         SPACE 1
***********************************************************************
**       TAPE DENSITY TEXT UNIT   (J. SAVIT, 12/12/80)               **
***********************************************************************
         RCPTYPE &DEN             ANALYZE PARAMETER
         AIF   ('&RCPTYPE' EQ 'N').DENB NUMERIC DCB
         MNOTE 4,'*** DENSITY MUST BE 0,1,2,3 OR 4, LIKE IN JCL ***'
         MNOTE *,'*** DEN IGNORED ***'
         AGO   .TDSORG
.DENB    ANOP  ,
&DENVAL  SETA  0                  CLEAR DENSITY BYTE COUNTER
         AIF   ('&DEN' EQ '0').DEN0 DENSITY 0?
         AIF   ('&DEN' EQ '1').DEN1 DENSITY 1?
         AIF   ('&DEN' EQ '2').DEN2 DENSITY 2?
         AIF   ('&DEN' EQ '3').DEN3 DENSITY 3?
         AIF   ('&DEN' EQ '4').DEN3 DENSITY 4?
         MNOTE 4,'*** INVALID DENSITY-PARAMETER IGNORED ***'
         AGO   .TDSORG            TRY NEXT PARAMETER INSTEAD
.DEN4    ANOP  ,
&DENVAL  SETA  16
.DEN3    ANOP  ,
&DENVAL  SETA  &DENVAL+64
.DEN2    ANOP  ,
&DENVAL  SETA  &DENVAL+64
.DEN1    ANOP  ,
&DENVAL  SETA  &DENVAL+64
.DEN0    ANOP  ,
&DENVAL  SETA  &DENVAL+03
         RCPNTU DALDEN,1,&DENVAL
.TDSORG  AIF   ('&DSORG' EQ '').EXIT
         SPACE 1
***********************************************************************
**       DSORG TEXT UNIT          (J. SAVIT, 12/12/80)               **
***********************************************************************
         AIF   ('&DSORG' EQ 'PO').DSORGPO
         AIF   ('&DSORG' EQ 'PS').DSORGPS
         AIF   ('&DSORG' EQ 'DA').DSORGDA
         MNOTE 8,'*** UNSUPPORTED DSORG &DSORG ***'
         MEXIT
.DSORGPO ANOP  ,
&DSOVAL  SETA  2*16*16
         AGO   .DSORGX
.DSORGPS ANOP  ,
&DSOVAL  SETA  4*16*16*16
         AGO   .DSORGX
.DSORGDA ANOP  ,
&DSOVAL  SETA  2*16*16*16
.DSORGX  RCPNTU DALDSORG,2,&DSOVAL
.EXIT    MEND
         MACRO
         RCPDDN &DDN
         GBLC  &DYNP
         SPACE 1
***********************************************************************
**   BUILD THE DDNAME TEXT UNIT                                      **
***********************************************************************
         AIF   ('&DDN'(K'&DDN,1) EQ '/').BTU
         AIF   ('&DDN'(1,1) EQ '''').Q
         RCPSR2
         AIF   ('&DDN'(1,1) EQ '(').R
         L     R14,&DDN                LOAD ADDRESS OF DDNAME
         LH    R2,&DDN+4               LOAD LENGTH OF DDNAME
         AGO   .STH
.R       L     R14,0&DDN               LOAD ADDRESS OF DDNAME
         LH    R2,4&DDN                LOAD LENGTH OF DDNAME
.STH     STH   R2,S99TULNG             STORE DDNAME LENGTH
         BCTR  R2,0                    DECREMENT FOR EXECUTE
         EX    R2,&DYNP.MVC            MOVE DDNAME
         MVI   S99TUKEY+1,DALDDNAM     MOVE IN DDNAME KEY
         MVI   S99TUNUM+1,1            SET NUMBER FIELD
         RCPDINC 14
         MEXIT
.Q       RCPBTU DALDDNAM,1,&DDN
         MEXIT
.BTU     RCPTUBFR DALDDNAM,14,&DDN
         MEND
         MACRO
         RCPDDNRT
         SPACE 1
***********************************************************************
**    DDNAME RETURN TEXT UNIT                                        **
***********************************************************************
         MVI   S99TUKEY+1,DALRTDDN     SET RETURN DDNAME KEY
         MVI   S99TUNUM+1,1            SET NUMBER FIELD
         MVI   S99TULNG+1,8            SET LENGTH FIELD
         MVC   S99TUPAR(8),=CL8' '     INITIALIZE FIELD TO BLANKS
         RCPDINC 14
         MEND
         MACRO
         RCPDINC &L1
         GBLA  &DTUO,&DTUPO
         GBLC  &DYNP
         AIF   ('&L1' EQ '').T2
         ST    R15,&DYNP.TUP+&DTUPO    STORE TEXT UNIT ADDRESS
         LA    R15,&L1.(R15)           BUMP TEXT UNIT PTR TO NEXT SLOT
&DTUPO   SETA  &DTUPO+4
&DTUO    SETA  &DTUO+&L1
         MEXIT
.T2      ST    R14,&DYNP.TUP+&DTUPO    STORE TEXT UNIT ADDRESS
&DTUPO   SETA  &DTUPO+4
         MEND
         MACRO
         RCPDISP &DISP
         LCLA  &I
         LCLB  &B(4)
         AIF   ('&DISP(1)' EQ '').TD2
         SPACE
***********************************************************************
**     DATA SET INITIAL STATUS                                       **
***********************************************************************
&B(1)    SETB  ('&DISP(1)' EQ 'SHR')
&B(2)    SETB  ('&DISP(1)' EQ 'NEW')
&B(3)    SETB  ('&DISP(1)' EQ 'MOD')
&B(4)    SETB  ('&DISP(1)' EQ 'OLD')
         AIF   (&B(1) OR &B(2) OR &B(3) OR &B(4)).OK1
         MNOTE 8,'&DISP(1) IS INVALID, DISP=SHR USED'
&B(1)    SETB  1
.OK1     ANOP
&I       SETA  8*&B(1)+4*&B(2)+2*&B(3)+&B(4)
         MVC   S99TUKEY(8),=Y(DALSTATS,1,1,X'0&I.00')
         RCPDINC 8
.TD2     AIF   ('&DISP(2)' EQ '').TD3
         SPACE
***********************************************************************
**    DATA SET NORMAL DISPOSITION                                    **
***********************************************************************
&B(1)    SETB  ('&DISP(2)' EQ 'KEEP')
&B(2)    SETB  ('&DISP(2)' EQ 'DELETE')
&B(3)    SETB  ('&DISP(2)' EQ 'CATLG')
&B(4)    SETB  ('&DISP(2)' EQ 'UNCATLG')
         AIF   (&B(1) OR &B(2) OR &B(3) OR &B(4)).OK2
         MNOTE 8,'&DISP(2) IS INVALID, DISP=(,KEEP) USED'
&B(1)    SETB  1
.OK2     ANOP
&I       SETA  8*&B(1)+4*&B(2)+2*&B(3)+&B(4)
         MVC   S99TUKEY(8),=Y(DALNDISP,1,1,X'0&I.00')
         RCPDINC 8
.TD3     AIF   ('&DISP(3)' EQ '').EXIT
         SPACE
***********************************************************************
**   DATASET CONDITIONAL DISPOSITION                                 **
***********************************************************************
&B(1)    SETB  ('&DISP(3)' EQ 'KEEP')
&B(2)    SETB  ('&DISP(3)' EQ 'DELETE')
&B(3)    SETB  ('&DISP(3)' EQ 'CATLG')
&B(4)    SETB  ('&DISP(3)' EQ 'UNCATLG')
         AIF   (&B(1) OR &B(2) OR &B(3) OR &B(4)).OK3
         MNOTE 8,'&DISP(3) IS INVALID, DISP=(,,KEEP) USED'
&B(1)    SETB  1
.OK3     ANOP
&I       SETA  8*&B(1)+4*&B(2)+2*&B(3)+&B(4)
         MVC   S99TUKEY(8),=Y(DALCDISP,1,1,X'0&I.00')
         RCPDINC 8
.EXIT    MEND
         MACRO
         RCPDSN &DSN,&MEM
         LCLC  &MEMBER
         GBLC  &DYNP
         SPACE
***********************************************************************
**   BUILD THE DSNAME TEXT UNIT                                      **
***********************************************************************
         AIF   ('&DSN'(1,1) EQ '''').Q
         AIF   ('&DSN'(K'&DSN,1) EQ '/').BD
         AIF   ('&DSN'(1,1) EQ '(').REG
         AIF   ('&DSN'  EQ '*').TERM
         RCPSR2
         L     R14,&DSN                LOAD ADDRESS OF DSNAME
         LH    R2,&DSN+4               LOAD LENGTH OF DSNAME
.STH     STH   R2,S99TULNG             STORE DSNAME LENGTH
         BCTR  R2,0                    DECREMENT FOR EXECUTE
         EX    R2,&DYNP.MVC            MOVE DSNAME
         MVI   S99TUKEY+1,DALDSNAM     MOVE IN DSNAME KEY
         MVI   S99TUNUM+1,1            SET NUMBER FIELD
         RCPDINC 50
         AGO   .TMEMBER
.REG     L     R14,0&DSN               LOAD ADDRESS OF DSNAME
         RCPSR2
         LH    R2,4&DSN                LOAD LENGTH OF DSNAME
         AGO   .STH
.TERM    MVI   S99TUKEY+1,DALTERM
         RCPDINC 4
         MEXIT
.BD      RCPTUBFR DALDSNAM,50,&DSN
         AGO   .TMEMBER
.Q       RCPBTU DALDSNAM,1,&DSN
.TMEMBER AIF   ('&MEM' EQ '').EXIT
         SPACE
***********************************************************************
**   BUILD THE MEMBER NAME TEXT UNIT                                 **
***********************************************************************
&MEMBER  SETC  '&MEM'
         AIF   ('&MEM' NE '*').MOK
         AIF   ('&DSN'(1,1) NE '''').MAST
         MNOTE 8,'MEMBER=* INVALID WITH QUOTED DSNAME'
         MEXIT
.MAST    ANOP
&MEMBER  SETC  '8+&DSN'
.MOK     ANOP
         AIF   ('&MEMBER'(K'&MEMBER,1) EQ '/').BM
         RCPSR2
         AIF   ('&MEMBER'(1,1) EQ '(').RM
         LH    R2,4+&MEMBER            LOAD LENGTH OF MEMBER NAME
         LTR   R2,R2                   TEST FOR ZERO
         BZ    *+30                    IF NO MEMBER, SKIP
         L     R14,&MEMBER             LOAD ADDRESS OF MEMBER
         AGO   .STHM
.RM      LH    R2,4&MEMBER             LOAD LENGTH OF MEMBER
         LTR   R2,R2                   AND TEST FOR ZERO
         BZ    *+30                    IF NO MEMBER, SKIP
         L     R14,0&MEMBER            LOAD ADDRESS OF MEMBER
.STHM    STH   R2,S99TULNG             STORE LENGTH OF MEMBER
         BCTR  R2,0                    DECREMENT FOR EXECUTE
         EX    R2,&DYNP.MVC            MOVE IN MEMBER NAME
         MVI   S99TUKEY+1,DALMEMBR     MOVE IN MEMBER KEY
         MVI   S99TUNUM+1,1            SET NUMBER FIELD
         RCPDINC 14
         MEXIT
.BM      RCPTUBFR DALMEMBR,14,&MEMBER
         MEXIT
.QM      RCPBTU DALMEMBR,1,&MEMBER
.EXIT    MEND
         MACRO
         RCPFDDN &DDN
         GBLC &DYNP
         SPACE
***********************************************************************
**        FREE DDNAME TEXT UNIT                                      **
***********************************************************************
         AIF   ('&DDN'(1,1) EQ '''').Q
         AIF   ('&DDN'(K'&DDN,1) EQ '/').B
         RCPSR2
         AIF   ('&DDN'(1,1) EQ '(').R
         L     R14,&DDN                LOAD ADDRESS OF DDNAME
         LH    R2,&DDN+4               LOAD LENGTH OF DDNAME
         AGO   .STH
.R       L     R14,0&DDN               LOAD ADDRESS OF DDNAME
         LH    R2,4&DDN                LOAD LENGTH OF DDNAME
.STH     STH   R2,S99TULNG             STORE DDNAME LENGTH
         BCTR  R2,0                    DECREMENT FOR EXECUTE
         EX    R2,&DYNP.MVC            MOVE DDNAME
         MVI   S99TUKEY+1,DUNDDNAM     MOVE IN DDNAME KEY
         MVI   S99TUNUM+1,1            SET NUMBER FIELD
         RCPDINC 14
         MEXIT
.Q       RCPBTU DUNDDNAM,1,&DDN
         MEXIT
.B       RCPTUBFR DUNDDNAM,14,&DDN
         MEND
         MACRO
         RCPFDSN &DSN,&MEM
         LCLC  &MEMBER
         GBLC  &DYNP
         SPACE
***********************************************************************
**      FREE DATA SET TEXT UNIT                                      **
***********************************************************************
         AIF   ('&DSN'(1,1) EQ '''').Q
         AIF   ('&DSN'(K'&DSN,1) EQ '/').BD
         AIF   ('&DSN'(1,1) EQ '(').REG
         RCPSR2
         L     R14,&DSN                LOAD ADDRESS OF DSNAME
         LH    R2,&DSN+4               LOAD LENGTH OF DSNAME
.STH     STH   R2,S99TULNG             STORE DSNAME LENGTH
         BCTR  R2,0                    DECREMENT FOR EXECUTE
         EX    R2,&DYNP.MVC            MOVE DSNAME
         MVI   S99TUKEY+1,DUNDSNAM     MOVE IN DSNAME KEY
         MVI   S99TUNUM+1,1            SET NUMBER FIELD
         RCPDINC 50
         AGO   .TMEMBER
.REG     L     R14,0&DSN               LOAD ADDRESS OF DSNAME
         RCPSR2
         LH    R2,4&DSN                LOAD LENGTH OF DSNAME
         AGO   .STH
.BD      RCPTUBFR DUNDSNAM,50,&DSN
         AGO   .TMEMBER
.Q       RCPBTU DUNDSNAM,1,&DSN
.TMEMBER AIF   ('&MEM' EQ '').EXIT
         SPACE
***********************************************************************
**       FREE MEMBER NAME TEXT UNIT                                  **
***********************************************************************
&MEMBER  SETC  '&MEM'
         AIF   ('&MEM' NE '*').MOK
         AIF   ('&DSN'(1,1) NE '''').MAST
         MNOTE 8,'MEMBER=* INVALID WITH QUOTED DSNAME'
         MEXIT
.MAST    ANOP
&MEMBER  SETC  '8+&DSN'
.MOK     ANOP
         AIF   ('&MEMBER'(K'&MEMBER,1) EQ '/').BM
         RCPSR2
         AIF   ('&MEMBER'(1,1) EQ '(').RM
         LH    R2,4+&MEMBER            LOAD LENGTH OF MEMBER NAME
         LTR   R2,R2                   TEST FOR ZERO
         BZ    *+30                    IF NO MEMBER, SKIP
         L     R14,&MEMBER             LOAD ADDRESS OF MEMBER
         AGO   .STHM
.RM      LH    R2,4&MEMBER             LOAD LENGTH OF MEMBER
         LTR   R2,R2                   AND TEST FOR ZERO
         BZ    *+30                    IF NO MEMBER, SKIP
         L     R14,0&MEMBER            LOAD ADDRESS OF MEMBER
.STHM    STH   R2,S99TULNG             STORE LENGTH OF MEMBER
         BCTR  R2,0                    DECREMENT FOR EXECUTE
         EX    R2,&DYNP.MVC            MOVE IN MEMBER NAME
         MVI   S99TUKEY+1,DUNMEMBR     MOVE IN MEMBER KEY
         MVI   S99TUNUM+1,1            SET NUMBER FIELD
         RCPDINC 14
         MEXIT
.BM      RCPTUBFR DUNMEMBR,14,&MEMBER
         MEXIT
.QM      RCPBTU DUNMEMBR,1,&MEMBER
.EXIT    MEND
         MACRO
         RCPFREE &FREE
         SPACE
***********************************************************************
**      UNALLOC AT CLOSE TEXT UNIT                                   **
***********************************************************************
         MVI   S99TUKEY+1,DALCLOSE     MOVE IN CLOSE TEXT UNIT KEY
         RCPDINC 4
         MEND
         MACRO
         RCPNTU &KEY,&LEN,&PAR
.*
.*     THIS IS AN ALLOC/FREE MACRO TEXT UNIT PROCESSOR SUBROUTINE
.*     MACRO. IT BUILDS NUMERIC TYPE TEXT UNITS.
.*
         LCLA  &L,&R
         LCLC  &C
         GBLC  &RCPTYPE
.*  ALLOC/FREE INNER MACRO TO SET UP NUMERIC TEXT UNITS
&L       SETA  1                       DEFAULT LENGTH
         AIF   ('&LEN' EQ '').NL
&L       SETA  &LEN
.NL      MVI   S99TUKEY+1,&KEY         SET KEY FIELD
         MVI   S99TUNUM+1,1            SET NUMBER FIELD
         MVI   S99TULNG+1,&L           SET LENGTH FIELD
         AIF   ('&PAR'(1,1) EQ '(').REG
         RCPTYPE &PAR                  ANALYSE PARAMETER
         AIF   ('&RCPTYPE' EQ 'N').NUMERIC
&R       SETA  4-&L
         MVC   S99TUPAR(&L),&R+&PAR    MOVE IN QUANTITY
         RCPDINC 10
         MEXIT
.NUMERIC AIF   (&L EQ 1).NL1
         MVC   S99TUPAR(&L.),=AL&L.(&PAR) MOVE IN QUANTITY
&R       SETA  &L+6
         AIF   (&R/2 EQ (&R+1)/2).LOK ENSURE LENGTH EVEN
&R       SETA  &R+1
.LOK     RCPDINC &R
         MEXIT
.NL1     MVI   S99TUPAR,&PAR           MOVE IN QUANTITY
         RCPDINC 8
         MEXIT
.REG     ANOP
&R       SETA  &L+6
         AIF   (&R/2 EQ (&R+1)/2).LOK ENSURE LENGTH EVEN
&R       SETA  &R+1
&C       SETC  '&PAR'(2,K'&PAR-2)
         AIF   (&L EQ 3).STCM
         AIF   (&L EQ 2).STH
         AIF   (&L EQ 1).STC
         ST    &C,S99TUPAR             STORE TEXT UNIT QUANTITY
         AGO   .RCPDINC
.STH     STH   &C,S99TUPAR             STORE TEXT UNIT QUANTITY
         AGO   .RCPDINC
.STC     STC   &C,S99TUPAR             STORE TEXT UNIT QUANTITY
         AGO   .RCPDINC
.STCM    STCM  &C,7,S99TUPAR           STORE TEXT UNIT QUANTITY
.RCPDINC RCPDINC &R
         MEND
         MACRO
         RCPOINC &L1
         GBLA  &ODTUO,&ODTUPO
         GBLC  &ODYNP
         AIF   ('&L1' EQ '').T2
         ST    R15,&ODYNP.TUP+&ODTUPO    STORE TEXT UNIT ADDRESS
         LA    R15,&L1.(R15)           BUMP TEXT UNIT PTR TO NEXT SLOT
&ODTUPO  SETA  &ODTUPO+4
&ODTUO   SETA  &ODTUO+&L1
         MEXIT
.T2      ST    R14,&ODYNP.TUP+&ODTUPO    STORE TEXT UNIT ADDRESS
&ODTUPO  SETA  &ODTUPO+4
         MEND
         MACRO
         RCPOUTA &OUTPUT=
         GBLC  &DYNSP
         GBLA  &DYNSPQ,&DTUO,&DTUPO
         LCLC  &C
         AIF   ('&OUTPUT' NE '').OUTDD
         AGO   .EXIT
.OUTDD   ANOP
***********************************************************************
**       OUTPUT DDNAME TEXT UNIT                                     **
***********************************************************************
         L     R4,&OUTPUT
         LA    R4,2(R4)
         OUTADD NAME=(R4),TEXTPTR=(R3),MF=(E,O&DYNSP.O)
.EXIT    MEND
         MACRO
         RCPOUTD &OUTPUT
         AIF   ('&OUTPUT' NE '').OUTDD
         MNOTE 8,' **** OUTPUT=&OUTPUT INVALID, MUST BE DDNAME'
         AGO   .EXIT
.OUTDD   ANOP
         LA     R4,=C'&OUTPUT'
         OUTDEL NAME=(R4)
.EXIT    MEND
         MACRO
         RCPRECFM &RECFM=
.*
         LCLC  &R                 REG NOTATION
         LCLA  &SCAN              FOR SCANNING RECORD FORMAT CHARS
         LCLC  &FORMAT            ENCODED RECORD FORMAT BYTE
         LCLC  &A,&A1,&A2,&A3,&A4,&S
         LCLC  &B
&R       SETC  '&RECFM'
&S       SETC  'S0&SYSNDX'
&A       SETC  'A0&SYSNDX'
&A1      SETC  'A1&SYSNDX'
&A2      SETC  'A2&SYSNDX'
&A3      SETC  'A3&SYSNDX'
&A4      SETC  'A4&SYSNDX'
&A5      SETC  'A5&SYSNDX'
&A6      SETC  'A6&SYSNDX'
&B       SETC  'B0&SYSNDX'
&FORMAT  SETC  'RF&SYSNDX'
         B     &S
         DS    0F
&FORMAT  DC    X'00'
&S       DS    0H
         XC    &FORMAT,&FORMAT
         LH    R14,0&R
         LA    R2,2&R
&A       DS    0H
         CLI   0(R2),C'F'
         BNE   &A1                CHECK FOR NEXT ATTR
         OI    &FORMAT,X'80'      SET FIXED LENGTH BIT
         B     &B                 SET FOR NEXT ATTR
&A1      DS    0H
         CLI   0(R2),C'V'
         BNE   &A2
         OI    &FORMAT,X'40'      SET VARIABLE LENGTH BIT
         B     &B                 SET FOR NEXT ATTR
&A2      DS    0H
         CLI   0(R2),C'U'
         BNE   &A3
         OI    &FORMAT,X'C0'      SET UNDEFINED BITS
         B     &B                 SET FOR NEXT ATTR
&A3      DS    0H
         CLI   0(R2),C'B'
         BNE   &A4
         OI    &FORMAT,X'10'      SET BLOCKED   BITS
         B     &B                 SET FOR NEXT ATTR
&A4      DS    0H
         CLI   0(R2),C'A'
         BNE   &A5
         OI    &FORMAT,X'04'      SET ASA       BITS
         B     &B                 SET FOR NEXT ATTR
&A5      DS    0H
         CLI   0(R2),C'M'
         BNE   &A6
         OI    &FORMAT,X'02'      SET MACHINE CODE  BITS
         B     &B                 SET FOR NEXT ATTR
&A6      DS    0H
         CLI   0(R2),C'S'
         BNE   &B
         OI    &FORMAT,X'08'      SET SPANNED       BITS
&B       DS    0H
         LA    R2,1(R2)           INCREMENT TO NEXT ATTR
         BCT   R14,&A             NEXT RECFM ATTR
         SR    R2,R2
         IC    R2,&FORMAT
         RCPNTU DALRECFM,1,(R2)
         MEND
         MACRO
         RCPSPACE &SPACE
         GBLA  &RCPSUB#                NO OF SUBLIST ELEMENTS
         GBLC  &RCPSUBL(100)           SUBLIST ELEMENTS
.**********************************************************************
.*    THIS IS AN ALLOC INNER MACRO TO BUILD THE ALLOCATION SPACE
.*    QUANTITY TEXT UNIT. IT SHOULD BE SPECIFIED AS:-
.*     SPACE=(TYPE,(PRIMARY,SECONDARY,DIRECTORY),RLSE,CONTIG,ROUND)
.*   WHERE TYPE IS 'TRK', 'CYL', 'ABSTR' OR A BLOCK QUANTITY
.*     'CYL' OR 'TRK' SHOULD NOT BE ENTERED IN QUOTES. THE BLOCK
.*     QUANTITY CAN BE A NUMBER, A REGISTER (IN BRACKETS), OR THE
.*     NAME OF A FULLWORD CONTAINING THE BLOCK SIZE.
.**********************************************************************
         AIF   ('&SPACE(1)' EQ '' OR '&SPACE(1)' EQ 'TRK').TRK
         AIF   ('&SPACE(1)' EQ 'CYL').CYL
***********************************************************************
**        SPACE UNIT IN BLOCKS                                       **
***********************************************************************
         RCPNTU DALBLKLN,3,&SPACE(1)  GENERATE BLOCK UNIT TU
         AGO   .TPRIME        GO TEST PRIME QUANTITY
.TRK     ANOP  TRACK SPEC REQ OR DEFAULTED
         SPACE