         MACRO
&NAME    REXIT &RC15=YES
         GBLC  &SASIZE
&NAME    DS    0H
         LA    R0,&SASIZE          LOAD SAVE AREA LENGTH FOR RELEASE
         LR    R1,R13              LOAD SAVE AREA ADDRESS FOR RELEASE
         L     R13,4(R13)          RESTORE CALLING SAVE AREA ADDRESS
         AIF   ('&RC15' NE 'YES').NORETC
         ST    R15,16(R13)         SAVE RETURN CODE
.NORETC  ANOP
         STORAGE  RELEASE,LENGTH=(0),ADDR=(1)
         LM    R14,R12,12(R13)     RESTORE CALLING REGS R14 - R12
         BR    R14
         MEND
