DIS2     TITLE '*** DISASSEMBLY PHASE 2 ***'
         MACRO
&NAME    SVLNK &REG1,&REG2,&REG3,&IND,&LV=
         GBLC  &EQU
         GBLC  &GM
         GBLC  &CSECT
         LCLC  &REGA
         AIF   (T'&NAME EQ 'O').NOCSECT
         AIF   ('&NAME' EQ '*').NOCSECT
&CSECT   SETC  '&NAME'
&CSECT   CSECT                         NAME OF PROGRAM
         AGO   .RST
.NOCSECT ANOP
&CSECT   SETC  '*'
         CSECT                         BEGINNING OF PROGRAM
.RST     ANOP
         AIF   ('&EQU' EQ 'ON').NRQ
&EQU     SETC  'ON'
*
***REGISTER EQUATES***
*
R0       EQU   0
R1       EQU   1
R2       EQU   2
R3       EQU   3
R4       EQU   4
R5       EQU   5
R6       EQU   6
R7       EQU   7
R8       EQU   8
R9       EQU   9
R10      EQU   10
R11      EQU   11
R12      EQU   12
R13      EQU   13
R14      EQU   14
R15      EQU   15
.NRQ     ANOP
*
*******************  PROGRAM INITIALIZATION  *************************
*
         AIF   (T'&REG1 EQ 'O').NOREG
&REGA    SETC  '&REG1'
         AIF   (T'&REG2 EQ 'O').ONEREG
         USING &CSECT,&REGA,&REG2          ESTABLISH ADDRESSABILITY
         AGO   .BYUSE
.NOREG   ANOP
&REGA    SETC  'R3'
.ONEREG  USING &CSECT,&REGA              ESTABLISH ADDRESSABILITY
.BYUSE   ANOP
         STM   R14,R12,12(R13) :       STORE REGS IN HIGH SAVE AREA
         LR    &REGA,R15                  INITIALIZE BASE REG
         AIF   (T'&REG2 EQ 'O').NOLA
         LA    &REG2,4095(&REGA)       INITIALIZE THE SECOND
         LA    &REG2,1(&REG2)                BASE REGISTER
.NOLA    ANOP
         AIF   (T'&REG3 EQ 'O').NOLNK
         L     &REG3,0(R1)                GET PARAMETER LIST ADDR
.NOLNK   ANOP
         AIF (T'&IND EQ 'O').GETIT
         CNOP  0,4
         BAL   R15,SAVEAREA+72         BRANCH AROUND SAVE AREA
SAVEAREA DS    18F                     REGISTER SAVE AREA
         ST    R15,8(R13)
         ST    R13,SAVEAREA+4
         LR    R13,R15
         AGO   .NOSAVE
.GETIT   ANOP
         AIF   (T'&LV EQ 'O').GMD
&GM      SETC  '&LV'
         AGO   .DGM
.GMD     ANOP
&GM      SETC  '72'
.DGM     ANOP
*
***GET MAIN STORAGE FOR SAVE AREA***
*
         AIF   ('&GM' LT '4096').LA
         GETMAIN R,LV=&GM              GET CORE FOR SAVE AREA
         AGO   .EGM
.LA      ANOP
         LA    R0,&GM                  GET &GM BYTES
         GETMAIN R,LV=(0)
.EGM     ANOP
*
***SET UP SAVE AREA POINTERS***
*
         ST    R1,8(R13)               STORE LOW SAVE POINTER
         ST    R13,4(R1)               STORE HIGH SAVE POINTER
         LR    R13,R1                  INITIALIZE SAVE POINTER
         AIF   (T'&REG3  NE 'O').NOSAVE
         L     R1,4(R13)               GET POINTER TO RESTORE PARA REG
         L     R1,24(R1)               RESTORE PARAMETER REGISTER
.NOSAVE  ANOP
         AIF   ('&CSECT' EQ '*').EXIT
         B     *+12
         DC    CL8'&CSECT'             END INITIAL., BEGIN THIS PROG.
.EXIT    ANOP
*
*********************  END INITIALIZATION  ***************************
*
         MEND
         EJECT
DISASM2  SVLNK R3,R4
         PRINT NOGEN
* THIS SUB-PROGRAM IS CALLED BY DISASM AFTER THE DIRECTORY
* ENTRY AND LOAD MODULE ARE PROCESSED. THE ESD AND RLD
* ENTRIES HAVE BEEN USED TO CREATE A PROGRAM LABEL TABLE,
* AND MODULE TEXT IS IN AN AREA OF STORAGE. A COMMON PARAMETER
* AREA IS DEFINED IN DISASM, AND PASSED TO THIS PROGRAM.
*
* TEXT BYTES ARE USED TO CREATE ASSEMBLY LANGUAGE STATEMENTS,
* AND MACHINE INSTRUCTION STATEMENTS. OUTPUT IS WRITTEN
* TO THE WORK1 DATASET FOR FURTHER PROCESSING BY OTHER
* MODULES.
*   A TEXT BYTE IS CONSIDERED TO BE AN INSTRUCTION IF
* IT OCCURS ON A HALFWORD BOUNDARY, IS A VALID OP-CODE,
* AND IS FOLLOWED BY A VALID OP-CODE. UNCONDITIONAL BRANCHES
* NEED NOT BE FOLLOWED BY A VALID OP-CODE, HOWEVER. THE
* PRIVILEGED AND FLOATING POINT INSTRUCTIONS ARE NOT
* TREATED AS INSTRUCTIONS UNLESS THE USER SPECIFIED
* THEIR INCLUSION AT EXEC TIME.
*
*
*
*
* AUTHOR R THORNTON - NOV 1977
* UPDATED ROBERT STYMA - JAN 1989 AND MARCH 1991
* UPDATED ALAN C FIELD - APR 1990
*
*
******************************************************************
*                                                                *
* CHECK IF USER WISHES FLOATING POINT AND PRIVILEGED INSTRUCTIONS*
* IF NOT, CLEAR THE APPROPRIATE ENTRIES IN THE INSTRUCTION OP    *
* CODE TABLES.                                                   *
*                                                                *
******************************************************************
*
         L     R5,0(R1)                GET PARM FIELD ADDRESS
         USING COMMPARM,R5
         CLI   FLPTASM,1               FLOATING POINT INSTR O.K.
         BE    TSTPRIV                 YES
         LA    R12,SGLOP               POINT TO OP-CODE TBL
TSTOPND  CLI   0(R12),X'FF'            END OF TBL
         BE    TSTPRIV                 YES
         TM    ICLASS-INSTENT(R12),FLTPT IS IT FLOATING POINT
         BZ    FLPSTP                  NO
         XC    0(L'SGLOP,R12),0(R12)   CLEAR ENTRY
FLPSTP   LA    R12,L'SGLOP(R12)        TO NEXT ENTRY
         B     TSTOPND                 LOOP THRU TABLE
TSTPRIV  CLI   PRIVASM,1               PRIVILEGED INSTR O.K.
         BE    MAINLINE                YES
         LA    R12,SGLOP               POINT TO OP-CODE TBL
TTOPND   CLI   0(R12),X'FF'            END OF TABLE
         BE    CKDBLS                  YES
         TM    ICLASS-INSTENT(R12),PRIV PRIVILEGED INSTR
         BZ    PRIVSTP                 NO
         XC    0(L'SGLOP,R12),0(R12)   YES, CLEAR ENTRY
PRIVSTP  LA    R12,L'SGLOP(R12)        TO NEXT ENTRY
         B     TTOPND                  LOOP THRU TABLE
CKDBLS   L     R12,DBLOPAD             @ 2-BYTE OP-CODE TBL
CKDBND   CLI   0(R12),X'FF'            END OF TBL
         BE    MAINLINE                YES
         TM    ICLASS-INSTENT+2(R12),PRIV PRIVILEGED OP-CODE
         BZ    DBSTP                   NO
         XC    0(L'DBLOP,R12),0(R12)   YES, CLEAR ENTRY
DBSTP    LA    R12,L'DBLOP(R12)        TO NEXT ENTRY
         B     CKDBND                  LOOP THRU TABLE
*
*
*
******************************************************************
*                                                                *
* MAINLINE ROUTINE FOR DISASSEMBLY. EACH BYTE OF TEXT IS CHECKED *
* TO DETERMINE WHETHER IT MAY BE AN INSTRUCTION OP-CODE. IF NOT, *
* THE CONST ROUTINE IS PERFORMED TO HANDLE CONSTANT DATA. IF IT  *
* APPEARS TO BE AN OP-CODE, THE INSTR ROUTINE IS PERFORMED.      *
* WHEN TEXT IS EXHAUSTED, THIS PHASE TERMINATES.                 *
*                                                                *
******************************************************************
*
MAINLINE EQU   *                       MAINLINE ROUTINE
         L     R6,LBLTBL               @ LABEL TABLE
         USING LABELD,R6
         MVC   TXTCURR,TXTSTRT         COPY TEXT START ADDR
GETCURR  L     R7,TXTCURR              @ CURRENT TXT BYTE
         C     R7,TXTEND               END OF TEXT
         BNL   EOJ                     YES          FIX******
         LR    R12,R7                  COPY TEXT ADDR
         S     R12,TXTSTRT             COMPUTE OFFSET
         ST    R12,TXTOFST             SAVE OFFSET TO THIS BYTE
         CLC   NEXCHG,TXTOFSET         TIME TO CHANGE BASES
         BH    CKDARNG                 NO
         BAL   R9,NEXUSG               YES, GO DO IT
CKDARNG  L     R12,DATONLY             GET DATA ONLY TBL ADDR
         CLC   TXTOFSET,0(R12)         RANGE BEGINS LATER
         BL    CKLOSEQ                 YES
         CLC   TXTOFSET,3(R12)         THIS BYTE IN THE RANGE
         BNH   CONST                   YES
         LA    R12,6(R12)              PAST THIS ENTRY, STEP OVER 1
         ST    R12,DATONLY             SAVE UPDATED ADDR
         B     CKDARNG                 GO CHECK AGAIN
CKLOSEQ  CLC   TXTOFSET,LBLADR         LABEL ENTRY OUT OF SEQ
         BNH   GCKODD                  NO, CONTINUE
         BAL   R9,FORCONST             YES, FORCE ANY CONSTANT OUT
         MVC   NAME,LBLNAME            NAME TO OUTPUT
         MVC   MNEMONIC,=CL5'EQU'      MNEMONIC
         MVI   OPNDS,C'*'              OPERAND
         MVC   COMMENT(14),=14C'?'     SHOW ERROR
         BAL   R9,WRTOUT               WRITE ERROR RECORD
         BAL   R9,PRINT                GO PRINT IT
         LA    R6,L'LABEL(R6)          TO NEXT LABEL
         B     CKLOSEQ                 CONTINUE SEQ CHK
GCKODD   TM    TXTCURR+3,1             ODD ADDRESS
         BO    CONST                   YES, NOT INSTR
         CLC   1(3,R7),0(R7)           4 CONSEC IDENTICAL BYTES
         BE    CONST                   YES, NOT INSTR
         TRT   0(1,R7),CHARTRAN        TEST TEXT BYTE
         BNZ   CKINSTR                 NOT CHARACTER
         CLI   CONPROG,1               IS CONSTANT IN PROGRESS
         BNE   CK6                     NO
         CLI   CONTYPE,C'C'            IS IT CHARACTER TYPE
         BE    CONST                   YES, ADD THIS TO CONSTANT
CK6      TRT   0(6,R7),CHARTRAN        6 CONSECUTIVE CHARACTERS
         BZ    CONST                   YES, NOT INSTRUCTION
CKINSTR  SR    R8,R8                   CLEAR WORK
         IC    R8,0(R7)                PICK UP TXT BYTE
         MH    R8,SGOPLEN              TIMES TABLE LENGTH
         LA    R8,SGLOP(R8)            @ INSTR TBL ENTRY
         MVC   INSTENT,0(R8)           SAVE INSTRUCTION TBL ENTRY
         CLI   INAME,0                 IS IT AN INSTR OP-CODE
         BE    CONST                   NO
         CLI   ITYPE,TWO               TWO-BYTE OP-CODE
         BNE   INSTR                   NO
         L     R8,DBLOPAD              YES, GET 2-BYTE TBL ADDR
DBLND    CLI   0(R8),X'FF'             END OF TABLE
         BE    CONST                   YES, NOT INSTR
         CLC   0(2,R8),0(R7)           THIS ENTRY MATCHES TXT
         BE    GOTDBLI                 YES
         LA    R8,L'DBLOP(R8)          TO NEXT ENTRY
         B     DBLND                   LOOP THRU TBL
GOTDBLI  LA    R8,2(R8)                PASS OP-CODE BYTES
         MVC   INSTENT,0(R8)           SAVE INSTR TBL ENTRY
*
*
*
******************************************************************
*                                                                *
* THIS ROUTINE IS ENTERED WHEN CURSORY CHECKS IN THE MAINLINE    *
* INDICATE THIS TEXT BYTE IS AN INSTRUCTION OP-CODE. FURTHER     *
* TESTING IS DONE BY THE IVERFY (NON-FLOATING POINT), OR FPVERFY *
* (FLOATING POINT) ROUTINES. BYTES PASSING THESE TESTS ARE       *
* ACCEPTED AS OP-CODES, AND ARE PASSED TO THE APPROPRIATE FORMAT *
* ROUTINES. FORMAT ROUTINES ARE ENTERED VIA A BRANCH TABLE USING *
* A BYTE IN THE INSTRUCTION OP-CODE TABLE ENTRY.                 *
*                                                                *
******************************************************************
*
INSTR    EQU   *                       *** INSTRUCTIONS (POSSIBLY) ***
         MVC   ILENG+1(1),INLNG        SET INSTR LENGTH
         LH    R12,ILENG               PICK UP LENGTH
         AR    R12,R7                  ADDR OF NEXT OP CODE
         SR    R15,R15                 CLEAR WORK
         IC    R15,0(R12)              PICK UP NEXT OP-CODE
         MH    R15,SGOPLEN             TIMES TBL ENTRY LENG
         LA    R15,SGLOP(R15)          INSTR TBL ENTRY ADDR
         CLI   INAME-INSTENT(R15),0    IS IT AN OP-CODE
         BNE   ICKSEC                  YES
         CLI   0(R7),X'45'             IS IT BAL
         BE    ICKTBL                  YES, CONTINUE
         CLI   0(R7),X'0B'             IS IT BSM
         BE    ICKTBL                  YES, CONTINUE
         CLI   0(R7),X'4D'             IS IT BAS
         BE    ICKTBL                  YES, CONTINUE
         CLI   0(R7),7                 NO, IS IT BCR
         BE    POSSB                   YES
         CLI   0(R7),X'47'             IS IT BC
         BNE   CONST                   NO, THEN THIS NOT INSTR
POSSB    TM    1(R7),X'F0'             IS IT UNCONDL BRCH
         BNO   CONST                   NO, THEN THIS NOT INSTR
         B     ICKTBL                  ACCEPT UNCOND BRCHS
ICKSEC   SR    R1,R1                   CLEAR WORK
         IC    R1,INLNG-INSTENT(R15)   GET INSTR LENGTH
         AR    R1,R12                  ADDR OF NEXT OP CODE
         SR    R14,R14                 CLEAR WORK
         IC    R14,0(R1)               PICK UP NEXT OP-CODE
         MH    R14,SGOPLEN             TIMES TBL ENTRY LENG
         LA    R14,SGLOP(R14)          INSTR TBL ENTRY ADDR
         CLI   INAME-INSTENT(R14),0    IS IT AN OP-CODE
         BNE   ICKTBL                  YES
         CLI   0(R12),X'45'            IS IT BAL
         BE    ICKTBL                  YES, CONTINUE
         CLI   0(R12),X'0B'            IS IT BSM
         BE    ICKTBL                  YES, CONTINUE
         CLI   0(R12),X'4D'            IS IT BAS
         BE    ICKTBL                  YES, CONTINUE
         CLI   0(R12),X'07'            NO, IS IT BCR
         BE    POSSB2                  YES
         CLI   0(R12),X'47'            IS IT BC
         BNE   CONST                   NO, THEN THIS NOT INSTR
POSSB2   TM    1(R12),X'F0'            IS IT UNCONDL BRCH
         BNO   CONST                   NO, THEN THIS NOT INSTR
ICKTBL   LH    R12,ILENG               GET INSTR LENGTH
         AR    R12,R7                  @ NEXT TEXT LOC
         BCTR  R12,R0                  BACK UP 1
         S     R12,TXTSTRT             RELATIVIZE IN CSECT
         CLM   R12,7,LBLADR            LBL TBL ADDR HERE
         BL    NOILBL                  NO
         CLC   TXTOFSET,LBLADR         LABEL AT INSTR START
         BNE   NOTINST                 NO, MUST BE CONSTANT      FIX***
         CLI   LBLTYP,C'L'             IS IT A LABEL ONLY
         BNE   NOTINST                 NO                        FIX***
         CLI   CONPROG,1               CONSTANT IN PROGRESS
         BNE   CKLBLNG                 NO
         BAL   R9,FORCONST             YES, FORCE IT OUT
CKLBLNG  CLC   LBLLEN,INLNG            LENGTHS SAME
         BE    SETLBL                  YES
         CLI   LBLLEN,0                DON'T CARE LENGTH
         BE    SETLBL                  YES
         BAL   R9,EQUSTMT              NO, BUILD EQU STATEMENT
         B     ISTPLBL                 CONTINUE
SETLBL   MVC   NAME,LBLNAME            LABEL ENTRY NAME TO INSTR
         MVC   CONLEN,LBLLEN           SET CONSTANT LENGTH IN CASE
ISTPLBL  DS    0H
         LR    R9,R6                   GET TEMP COPY OF LABEL TAB ENT
         LA    R6,L'LABEL(R6)          TO NEXT LABEL TBL ENTRY
         CLC   LBLADR(3),LBLADR-LABEL(R9)  THIS ENTRY SAME ADDR?
         BNE   ICKTBL                  NO
         LR    R6,R9                   BACK UP TO PREV ENTRY
         BAL   R9,EQUSTMT              GO BUILD EQU STATEMENT
         LA    R6,L'LABEL(R6)          TO NEXT ENTRY
         B     ICKTBL                  GO CHECK NEXT LABEL
NOILBL   CLI   CONPROG,1               CONSTANT IN PROGRESS
         BNE   MVMNE                   NO
         BAL   R9,FORCONST             YES, FORCE IT OUT
MVMNE    MVC   MNEMONIC,0(R8)          SET INSTR MNEMONIC
         MVC   OFFSET,TXTOFSET         SET OFFSET
         MVC   INSTYP,5(R8)            SET INSTR TYPE
         MVI   TYPE,X'0D'              SHOW IT IS AN INSTRUCTION
         MVC   LEN,ILENG+1             SHOW LENGTH
         MVC   TEXT(6),0(R7)           MOVE ACTUAL TEXT
OPNDFMT  TM    ICLASS,FLTPT            FLOATING POINT OP-CODE
         BO    FPVERFY                 YES, GO VERIFY
         CLI   IEDT,0                  ANY EDIT REQUIRED
         BE    PFMFMT                  NO
         B     IVERFY                  YES, GO EDIT
PFMFMT   SR    R1,R1                   CLEAR WORK
         IC    R1,INSTYP               GET INSTRUCTION TYPE
         L     R9,OPND9                GET FORMAT ROUTINE RETURN ADDR
         B     *+4(R1)                 TO APPROPRIATE FORMATTING ROUTIN
         B     RROPND                  TYPE=0, RR
         B     RXOPND                  TYPE=4, RX
         B     SOPND                   TYPE=8, S
         B     SIOPND                  TYPE=C, SI
         B     RSOPND                  TYPE=10, RS
         B     SS1OPND                 TYPE=14, 1-LENGTH SS
         B     SS2OPND                 TYPE=18, 2-LENGTH SS
         B     SOPND                   TYPE=1C, 2-BYTE OP-CODES
         B     BCOPND                  TYPE=20, CONDITIONAL BRANCH
         B     SVCOPND                 TYPE=24, SVC
         B     SSEOPND                 TYPE=28, SSE
         B     EOPND                   TYPE=2C, E
         B     RROPND                  TYPE=30, RRE 1 OPERAND
         B     RROPND                  TYPE=34, RRE 2 OPERANDS
OPNDRTN  B     INSTOUT                 NORMAL OPERAND FORMAT RETURN
         MVC   CONNAME,NAME            ANY NAME TO CONSTANT AREA
         B     CONST                   ERROR INSTRUCTION, TREAT AS CONS
NOTINST  CLC   NAME,BLANX              IS NAME FILLED IN?        FIX***
         BE    CONST                                             FIX***
         SH    R6,LBLLGTH              BACK UP                   FIX***
         B     CONST                                             FIX***
INSTOUT  BAL   R9,WRTOUT               WRITE INSTRUCTION RECORD
         BAL   R9,TXTFMT               FORMAT HEX DATA
         BAL   R9,PRINT                GO PRINT IT
         AH    R7,ILENG                STEP TO NEXT TEXT BYTE
         ST    R7,TXTCURR              SAVE NEXT ADDR
         MVC   CCTYPE,ICCSET           SHOW COND CODE SET TYPE
         B     GETCURR                 CONTINUE TXT PROCESSING
*
*
*
******************************************************************
*                                                                *
* THIS ROUTINE IS ENTERED FROM THE INSTR ROUTINE FOR NON FLOATING*
* POINT INSTRUCTIONS. VARIOUS EDITS ARE PERFORMED TO INSURE THE  *
* INPUT TEXT BYTE IS AN OP-CODE. IF IT IS, RETURN IS TO LABEL    *
* PFMFMT, OTHERWISE THE CONST ROUTINE IS PERFORMED.              *
*                                                                *
******************************************************************
*
IVERFY   EQU   *                       *** VERIFY POSSIBLE INSTRUCTION
         TM    IEDT,EPR                EVEN-ODD REG PAIR
         BZ    IVE2                    NO
         TM    1(R7),X'10'             R1 IS ODD
         BO    CONST                   YES, NOT INSTR
         CLI   0(R7),X'0E'             IS IT MVCL
         BE    IVTRG2                  YES
         CLI   0(R7),X'0F'             IS IT CLCL
         BNE   IVE2                    NO
IVTRG2   TM    1(R7),X'01'             R2 IS ODD
         BO    CONST                   YES, NOT INSTR
         SR    R1,R1                   CLEAR WORK
         SR    R2,R2                   CLEAR WORK
         IC    R1,1(R7)                GET R1R2
         SRL   R1,4                    SHIFT OUT R2
         PACK  DBLWD(1),1(1,R7)        FLIP R1R2 BYTE
         IC    R2,DBLWD                PICK UP R2R1
         SRL   R2,4                    SHIFT OUT R1
         CR    R1,R2                   R1=R2
         BE    CONST                   YES, NOT INSTR
         B     PFMFMT                  NO, GOOD INSTR
IVE2     TM    IEDT,E2                 HALFWORD STORAGE ALIGNMENT
         BZ    IVE4                    NO
         TM    3(R7),X'01'             DISPL IS ODD
         BZ    IVES2                   NO, O.K.
         TM    2(R7),X'F0'             BASE REG = 0
         BNZ   IVES2                   NO, CONTINUE
         CLI   0(R7),X'44'             EX OP CODE
         BE    CONST                   YES, NOT INSTR
         CLI   0(R7),X'47'             BC OP CODE
         BE    CONST                   YES, NOT INSTR
         CLI   ITYPE,RS                RS INSTRUCTION
         BE    CONST                   YES, NOT INSTR
         TM    1(R7),X'0F'             INDEX REG IS 0
         BZ    CONST                   YES, NOT INSTR
         B     IVES2                   CONTINUE
IVE4     TM    IEDT,E4                 2ND OPND ON FULLWORD BOUND
         BZ    IVE8                    NO
         TM    3(R7),X'03'             DISPL DIV BY 4
         BZ    IVES2                   YES, O.K.
         TM    2(R7),X'F0'             BASE REG = 0
         BNZ   IVES2                   NO, CONTINUE
         CLI   ITYPE,RS                RS INSTRUCTION OP CODE
         BE    CONST                   YES, NOT INSTR
         TM    1(R7),X'0F'             INDEX REG = 0
         BZ    CONST                   YES, NOT INSTR
         B     IVES2                   NO, CONTINUE
IVE8     TM    IEDT,E8                 2ND OPND ON DBLWD BOUND
         BZ    IVES2                   NO
         TM    3(R7),X'07'             DISPL DIV BY 8
         BZ    IVES2                   YES, O.K.
         TM    2(R7),X'F0'             BASE REG = 0
         BNZ   IVES2                   NO
         TM    1(R7),X'0F'             INDEX REG = 0
         BZ    CONST                   YES, NOT INSTR
IVES2    CLI   PRIVASM,1               PRIVILEGED INSTR O.K.
         BE    PFMFMT                  YES
         TM    IEDT,S2                 OPND2 MUST HAVE BASE
         BZ    IVES1                   NO
         TM    2(R7),X'F0'             BASE REG = 0
         BNZ   PFMFMT                  NO, O.K.
         CLI   ITYPE,RS                RS INSTRUCTION
         BE    CONST                   YES, NOT INSTR
         CLI   0(R7),X'92'             IS IT MVI OP CODE
         BE    CONST                   YES, NOT INSTR
         TM    1(R7),X'0F'             INDEX REG = 0
         BZ    CONST                   YES, NOT INSTR
         B     PFMFMT                  NO, GOOD INSTR
IVES1    TM    IEDT,S1                 1ST OPND MUST HAVE BASE
         BZ    PFMFMT                  NO, CONTINUE
         TM    2(R7),X'F0'             1ST OPND HAS BASE
         BZ    CONST                   NO, NOT INSTR
         B     PFMFMT                  YES, INSTR O.K.
*
*
*
******************************************************************
*                                                                *
* THIS ROUTINE IS ENTERED FROM THE INSTR ROUTINE FOR FLOATING    *
* POINT INSTRUCTIONS. VARIOUS EDITS ARE PERFORMED TO INSURE THE  *
* INPUT TEXT BYTE IS AN OP-CODE. IF IT IS, RETURN IS TO LABEL    *
* PFMFMT, OTHERWISE THE CONST ROUTINE IS PERFORMED.              *
*                                                                *
******************************************************************
*
FPVERFY  EQU   *                       *** VALIDATE FLOATING POINT OP-C
         TM    1(R7),X'90'             R1 IS 0, 2, 4, OR 6
         BNZ   CONST                   NO, NOT INSTR
         CLI   0(R7),X'27'             MXDR OP-CODE
         BE    FPR1EXT                 YES
         CLI   0(R7),X'67'             MXD OP-CODE
         BNE   FPCKTYP                 NO
FPR1EXT  TM    1(R7),X'B0'             R1 IS 0 OR 4
         BNZ   CONST                   NO, NOT INSTR
FPCKTYP  CLI   ITYPE,RR                RR TYPE INSTRUCTION
         BNE   FPRXVER                 NO
         TM    1(R7),X'09'             R2 IS 0, 2, 4, 6
         BNZ   CONST                   NO, NOT INSTR
         CLI   0(R7),X'25'             LRDR OP CODE
         BE    FPR2EXT                 YES
         CLI   0(R7),X'37'             SXR OP-CODE
         BE    FPR2EXT                 YES
         CLI   0(R7),X'26'             MXR OP-CODE
         BE    FPR2EXT                 YES
         CLI   0(R7),X'36'             AXR OP-CODE
         BNE   PFMFMT                  NO, GOOD INSTR
FPR2EXT  TM    1(R7),X'0B'             R2 IS 0 OR 4
         BZ    PFMFMT                  YES, GOOD INSTR
         B     CONST                   NO, NOT INSTR
FPRXVER  CLI   PRIVASM,1               PRIVILEGED INSTRUCTIONS O.K.
         BE    FPALIGN                 YES
         TM    2(R7),X'F0'             ANT BASE REG
         BNZ   FPALIGN                 YES
         TM    1(R7),X'0F'             ANY INDEX REG
         BZ    CONST                   NO, NOT INSTR
FPALIGN  TM    2(R7),X'F0'             ANY BASE REG
         BNZ   PFMFMT                  YES, ACCEPT INSTR
         TM    1(R7),X'0F'             ANY INDEX REG
         BNZ   PFMFMT                  YES, ACCEPT INSTR
         TM    3(R7),X'03'             DISPL DIV BY 4
         BNZ   CONST                   NO, NOT INSTR
         TM    ICLASS,FLSHT            SHORT PRECISION
         BO    PFMFMT                  YES, ACCEPT INSTRUCTION
         TM    3(R7),X'07'             DISPL DIV BY 8
         BZ    PFMFMT                  YES, ACCEPT INSTR
         B     CONST                   NO, NOT INSTR
*
*
*
******************************************************************
*                                                                *
* THIS ROUTINE IS ENTERED FROM VARIOUS OTHER ROUTINES WHEN THE   *
* CURRENT TEXT BYTE IS DETERMINED NOT TO BE AN INSTRUCTION OP    *
* CODE. A CONSTANT AREA IS BUILT TO CONTAIN THE CONSTANT, IT'S   *
* DATA TYPE, SYMBOL TO BE USED FOR ADCONS, LABEL TO BE USED, IF  *
* ANY, ETC. THE CONSTANT IS BUILT BYTE BY BYTE, AND IS TERMINATED*
* FOR OUTPUT BY THE FORCONST ROUTINE. THIS ROUTINE DETECTS END OF*
* CONSTANT WHEN THE CONSTANT IN PROGRESS EXCEEDS 2 BYTES FOR A   *
* HALFWORD, 4 BYTES FOR A FULLWORD, OR 8 BYTES AS A MAXIMUM. IT  *
* IS ALSO TERMINATED WHEN A CHANGE IN DATA TYPE OCCURS.          *
*                                                                *
******************************************************************
*
CONST    EQU   *                       *** PROCESS CONSTANTS ***
         MVC   WORKREC,BLANX           CLEAR WORK RECORD AREA
         CLI   CONPROG,1               CONSTANT IN PROGRESS
         BNE   CCNEW                   NO
         CLC   TXTOFSET,LBLADR         LABEL ENTRY HAS THIS OFFSET
         BNE   CGETYP                  NO
CSTNEW   BAL   R9,FORCONST             FORCE IT OUT
         B     CCNEW                   GO START A NEW ONE
CGETYP   TRT   0(1,R7),CHARTRAN        CHECK DATA TYPE OF BYTE
         BNZ   CHEX                    IT'S HEX
         MVI   CCKTYP+1,C'C'           SET TYPE IN COMPARE
         B     CCKTYP                  GO COMPARE
CHEX     MVI   CCKTYP+1,C'X'           SET TYPE IN COMPARE
CCKTYP   CLI   CONTYPE,C' '            TYPE IN PROG SAME AS THIS BYTE
         BNE   CSTNEW                  NO
CUPDCON  LH    R11,CONLEN              GET CURRENT LENGTH
         LA    R11,1(R11)              ADD 1
         STH   R11,CONLEN              UPDATE LENGTH
         L     R11,CONLOC              GET CURRENT LOC IN CONST DATA
         MVC   0(1,R11),0(R7)          MOVE BYTE TO DATA
         LA    R11,1(R11)              STEP OVER ONE BYTE
         ST    R11,CONLOC              SAVE UPDATED DATA ADDR
         CLI   CONTYPE,C'C'            CHARACTER CONSTANT
         BE    CCK8                    YES
         TM    CONOFST+3,1             OFFSET IS ODD
         BO    CCFIN1                  YES
         TM    CONOFST+3,2             HALFWORD OFFSET
         BZ    CCFWD                   NO
         CLI   CONLEN+1,1              HALFWORD, IS LENGTH = 1
         BE    CCXIT1                  YES
         B     CCFIN1                  NO
CCFWD    CLI   CONLEN+1,4              NO, IS HEX CONST 4 BYTES
         BL    CCXIT1                  NOT YET
CCFIN1   BAL   R9,FORCONST             MAX LENG, FORCE IT OUT
         B     CCXIT1                  FINISH
CCK8     CLC   CONLEN,H8               CHAR CONSTANT 8 BYTES
         BNL   CCFIN1                  YES
CCXIT1   LA    R7,1(R7)                STEP OVER 1 BYTE IN TEXT
         ST    R7,TXTCURR              UPDATE TEXT ADDR
         B     GETCURR                 CONTINUE TEXT PROCESSING
CCNEW    MVI   CONPROG,1               SHOW CONSTANT IN PROGRESS
         MVC   CONOFST,TXTOFST         SET OFFSET TO 1ST BYTE
         MVC   CONNAME,BLANX           CLEAR NAME
         XC    CONDATA,CONDATA         CLEAR DATA AREA
         MVC   CONSYM,BLANX            CLEAR SYMBOL NAME
         MVC   CONLEN,XZROS            CLEAR LENGTH
         LA    R11,CONDATA             GET 1ST DATA BYTE ADDR
         ST    R11,CONLOC              SET STARTING ADDRESS OF DATA
         CLC   TXTOFSET,LBLADR         LABEL AT THIS OFFSET
         BE    CLBLD                   YES
TRTYPE   TRT   0(1,R7),CHARTRAN        CHECK DATA TYPE OF BYTE
         BNZ   CCSHX                   IT'S HEX
         MVI   CONTYPE,C'C'            IT'S CHAR, SO INDICATE
         B     CUPDCON                 GO COMPLETE
CCSHX    MVI   CONTYPE,C'X'            IT'S HEX, SO INDICATE
         B     CUPDCON                 GO COMPLETE
CLBLD    CLI   LBLTYP,C'L'             IS IT A LABEL ONLY
         BNE   CDATACON                NO
         MVC   CONNAME,LBLNAME         NAME TO CONSTANT WORK AREA
         MVC   CONLLEN,LBLLEN         SAVE LENGTH
         LA    R6,L'LABEL(R6)          TO NEXT LABEL ENTRY
         CLC   TXTOFSET,LBLADR         THIS LABEL AT SAME ADDR
         BNE   TRTYPE                  NO
         CLI   LBLTYP,C'L'             THIS ANOTHER LABEL ONLY
         BNE   CDATACON                NO
         SH    R6,LBLLGTH             BACK UP TO LABEL ENTRY
         BAL   R9,EQUSTMT             GO BUILD EQU STATEMENT
         LA    R6,L'LABEL(R6)          TO NEXT LABELENTRY
         B     CCNEW                   GO TO NEXT LABEL
CDATACON MVC   CONTYPE,LBLTYP          TYPE TO CONSTANT AREA
         SR    R1,R1                   CLEAR WORK
         IC    R1,LBLLEN               PICK UP CONSTNT LENGTH
         STH   R1,CONLEN               SAVE CONSTANT LENGTH
         BCTR  R1,R0                   COMPUTE CONSTANT LENGTH CODE
         STC   R1,MCD+1                SET MOVE LENGTH CODE
MCD      MVC   CONDATA,0(R7)           MOVE DATA TO RECORD
         MVC   CONSYM,LBLNAME          SYMBOL TO CONSTANT AREA
         SR    R11,R11                 CLEAR WORK REG
         IC    R11,LBLLEN              PICK UP LENGTH
         AR    R7,R11                  STEP PAST TEXT