DIS1     TITLE '*** DISASSEMBLY PHASE 1 ***'
         MACRO
&NAME    SVLNK &REG1,&REG2,&REG3,&IND,&LV=
         GBLC  &EQU
         GBLC  &GM
         GBLC  &CSECT
         LCLC  &REGA
         AIF   (T'&NAME EQ 'O').NOCSECT
         AIF   ('&NAME' EQ '*').NOCSECT
&CSECT   SETC  '&NAME'
&CSECT   CSECT                         NAME OF PROGRAM
         AGO   .RST
.NOCSECT ANOP
&CSECT   SETC  '*'
         CSECT                         BEGINNING OF PROGRAM
.RST     ANOP
         AIF   ('&EQU' EQ 'ON').NRQ
&EQU     SETC  'ON'
*
***REGISTER EQUATES***
*
R0       EQU   0
R1       EQU   1
R2       EQU   2
R3       EQU   3
R4       EQU   4
R5       EQU   5
R6       EQU   6
R7       EQU   7
R8       EQU   8
R9       EQU   9
R10      EQU   10
R11      EQU   11
R12      EQU   12
R13      EQU   13
R14      EQU   14
R15      EQU   15
.NRQ     ANOP
*
*******************  PROGRAM INITIALIZATION  *************************
*
         AIF   (T'&REG1 EQ 'O').NOREG
&REGA    SETC  '&REG1'
         AIF   (T'&REG2 EQ 'O').ONEREG
         USING &CSECT,&REGA,&REG2          ESTABLISH ADDRESSABILITY
         AGO   .BYUSE
.NOREG   ANOP
&REGA    SETC  'R3'
.ONEREG  USING &CSECT,&REGA              ESTABLISH ADDRESSABILITY
.BYUSE   ANOP
         STM   R14,R12,12(R13)         STORE REGS IN HIGH SAVE AREA
         LR    &REGA,R15                  INITIALIZE BASE REG
         AIF   (T'&REG2 EQ 'O').NOLA
         LA    &REG2,4095(&REGA)       INITIALIZE THE SECOND
         LA    &REG2,1(&REG2)                BASE REGISTER
.NOLA    ANOP
         AIF   (T'&REG3 EQ 'O').NOLNK
         L     &REG3,0(R1)                GET PARAMETER LIST ADDR
.NOLNK   ANOP
         AIF (T'&IND EQ 'O').GETIT
         CNOP  0,4
         BAL   R15,SAVEAREA+72         BRANCH AROUND SAVE AREA
SAVEAREA DS    18F                     REGISTER SAVE AREA
         ST    R15,8(R13)
         ST    R13,SAVEAREA+4
         LR    R13,R15
         AGO   .NOSAVE
.GETIT   ANOP
         AIF   (T'&LV EQ 'O').GMD
&GM      SETC  '&LV'
         AGO   .DGM
.GMD     ANOP
&GM      SETC  '72'
.DGM     ANOP
*
***GET MAIN STORAGE FOR SAVE AREA***
*
         AIF   ('&GM' LT '4096').LA
         GETMAIN R,LV=&GM              GET CORE FOR SAVE AREA
         AGO   .EGM
.LA      ANOP
         LA    R0,&GM                  GET &GM BYTES
         GETMAIN R,LV=(0)
.EGM     ANOP
*
***SET UP SAVE AREA POINTERS***
*
         ST    R1,8(R13)               STORE LOW SAVE POINTER
         ST    R13,4(R1)               STORE HIGH SAVE POINTER
         LR    R13,R1                  INITIALIZE SAVE POINTER
         AIF   (T'&REG3  NE 'O').NOSAVE
         L     R1,4(R13)               GET POINTER TO RESTORE PARA REG
         L     R1,24(R1)               RESTORE PARAMETER REGISTER
.NOSAVE  ANOP
         AIF   ('&CSECT' EQ '*').EXIT
         B     *+12
         DC    CL8'&CSECT'             END INITIAL., BEGIN THIS PROG.
.EXIT    ANOP
*
*********************  END INITIALIZATION  ***************************
*
         MEND
         EJECT
DISASM1  SVLNK R3,R4
         PRINT NOGEN
* THIS SUB-PROGRAM IS CALLED BY DISASM, AND IS PHASE 2 OF
* THE DISASSEMBLY PROCESS. A COMMON DATA
* AREA IS DEFINED IN DISASM, AND PASSED TO THIS PROGRAM.
*
*    THE SYSIN FILE IS READ TO EXHAUSTION. USING CARDS ARE
* REFORMATTED AND STORED IN A TABLE - UP TO 256 USING
* STATEMENTS MAY BE ENTERED. DSECT CARDS MAY FOLLOW THE
* USING STATEMENTS. WHEN USED, DSECT STATEMENTS ARE
* REFORMATTED, AND BUILT INTO TABLES. A MAXIMUM OF 256 DSECTS
* MAY BE ENTERED. DATA ONLY CARDS MAY BE INCLUDED BEFORE, BETWEEN,
* OR AFTER DSECTS TO SHOW AREAS IN THE PROGRAM WHERE NO INSTRUCTIONS
* OCCUR. UP TO 256 DATA ONLY AREAS MAY BE SPECIFIED.
*
*     AT EOF ON SYSIN, A PSEUDO DIS-ASSEMBLY PASS IS MADE
* USING THE TEXT STORED BY DISASM. ANY RESOLVABLE ADDRESS
* WITHIN THE TEXT IS USED TO CREATE A NEW ENTRY IN THE
* LABEL TABLE, WHICH WILL BE USED BY DISASM2 IN THE
* ACTUAL DIS-ASSEMBLY PASS.
*
* THE USING CARDS FOR BASE REGISTERS ASSOCIATED WITH DSECT DEFINITIONS
* MUST BE ENTERED AT SOME POINT AFTER THE DSECT CARDS HAVE BEEN
* INCLUDED. USING CARDS FOR PROGRAM BASE REGISTERS MAY BE ENTERED
* AT ANY POINT. THE USING CARD FORMAT IS:
*       COL 1-5   : LITERAL 'USING'
*       COL 6     : BLANK
*       COL 7-12  : OFFSET TO BEGIN LOCATION FOR USING RANGE (HEX)
*       COL 13    : BLANK
*       COL 14-19 : OFFSET TO ENDING LOCATION FOR USING RANGE (HEX)
*       COL 20    : BLANK
*       COL 21    : BASE RESISTER TO BE USED (HEX, 1-F)
*       COL 22    : BLANK
*       COL 23    : TYPE, P=PROGRAM BASE, D=DSECT BASE
*       COL 24    : BLANK
*       COL 25-30 : INITIAL BASE REGISTER VALUE IF TYPE P (HEX)
*       COL 25-32 : DSECT NAME IF TYPE D
*
*     A DSECT IS ENTERED USING A HEADER CARD,FOLLOWED BY
* ONE OR MORE FIELD DEFINITION CARDS. ALL FIELD DEFINITION
* CARDS MUST FOLLOW THE DSECT HEADER CARD. USING CARDS MAY
* NOT BE INTERSPERSED WITH DSECT DEFINITIONS, BUT MAY PRECEDE
* OR FOLLOW ANY DSECT.
*     DSECT HEADER CARD FORMAT:
*        COL 1-8    : DSECT NAME
*        COL 9      : BLANK
*        COL 10-14  : LITERAL 'DSECT'
*        COL 15     : BLANK
*        COL 16-19  : NUMBER OF FIELD CARDS TO FOLLOW (DECIMAL)
*
*     DSECT FIELD CARD FORMAT:
*        COL 1-8    : FIELD NAME
*        COL 9      : BLANK
*        COL 10-13  : OFFSET TO LEFT END OF FIELD (DECIMAL)
*        COL 14     : BLANK
*        COL 15-17  : LENGTH OF FIELD IN BYTES (DECIMAL)
*
*     A DATA ONLY CARD IS USED TO DESIGNATE A RANGE OF OFFSETS
* BETWEEN WHICH NO INSTRUCTIONS EXIST. USE OF THESE CARDS ELIMINATES
* THE CHANCE THAT DATA ELEMENTS WILL BE TREATED AS INSTRUCTIONS
* BETWEEN THE OFFSETS SPECIFIED. FORMAT IS:
*        COL 1-4    : LITERAL 'DATA'
*        COL 5      : BLANK
*        COL 6-11   : OFFSET TO BEGINNING OF AREA (HEX)
*        COL 12     : BLANK
*        COL 13-18  : OFFSET TO END OF AREA (HEX)
*
*
*     USER LABEL CARDS ARE USED TO PERMIT SPECIFICATION OF
* LABELS OTHER THAN THE AXXXXXX NAMES CREATED BY DISASM. THEY
* MAY APPEAR ANYWHERE IN THE SYSIN STREAM EXCEPT AS THE FIRST
* CARD, OR WITHIN A DSECT DEFINITION.
*        COL  1-5  : LITERAL 'ULABL'
*        COL   6   : BLANK
*        COL  7-14 : FIELD NAME
*        COL   15  : BLANK
*        COL 16-21 : OFFSET TO LEFT END OF AREA (HEX)
*        COL   22  : BLANK
*        COL 23-25 : FIELD LENGTH (DECIMAL)
*
*      DISASSEMBLY TABLES ARE SET UP IDENTICALLY TO THOSE USED BY
* DISASM2 FOR THE SIMULATED DISASSEMBLY PERFORMED IN THIS
* MODULE WHEN ANY PROGRAM BASE REGISTER USING STATEMENTS
* ARE ENTERED.
*
*     STORAGE IS OBTAINED FOR THE DSECT TABLE AND USING TABLE,
* AND ADDRESSES OF THESE TABLES ARE STORED IN THE COMMON PARAMETER
* AREA. USING AND DSECT CARDS ARE EDITED, REFORMATTED, AND PLACED
* IN THE APPROPRIATE TABLES. IF ANY ERRORS ARE FOUND, THEY ARE
* PRINTED, AND THE DISASSEMBLY WILL BE TERMINATED ON RETURN
* TO DISASM.
*
*     STORAGE IS OBTAINED FOR THE LABEL TABLE, AND A SIMULATED
* DIS-ASSEMBLY IS PERFORMED TO CREATE LABEL TABLE ENTRIES FOR
* LABELS WHICH WILL BE GENERATED FOR BASE-DISPLACEMENT ADDRESSES
* BY DISASM2. ON RETURN TO DISASM, THESE LABELS WILL BE SORTED
* WITH EXTERNAL SYMBOL AND RLD LABELS TO FORM THE FINAL LABEL
* TABLE TO BE USED BY DISASM2.
*
*
*
*
* AUTHOR R THORNTON - FEB 1978
* UPDATED ROBERT STYMA - JAN 1989 AND MARCH 1991
* UPDATED ALAN C FIELD - APR 1990
*
*
******************************************************************
*                                                                *
* CHECK FOR PRIVILEGED AND/OR FLOATING POINT INSTRUCTION OPTION. *
* IF THESE INSTRUCTIONS ARE NOT TO BE ASSEMBLED, CLEAR THEIR     *
* INSTRUCTION TABLE ENTRIES.                                     *
*                                                                *
******************************************************************
*
         L     R5,0(R1)                GET PARM FIELD ADDRESS
         USING COMMPARM,R5
         CLI   FLPTASM,1               FLOATING POINT INSTR O.K.
         BE    TSTPRIV                 YES
         LA    R12,SGLOP               POINT TO OP-CODE TBL
TSTOPND  CLI   0(R12),X'FF'            END OF TBL
         BE    TSTPRIV                 YES
         TM    ICLASS-INSTENT(R12),FLTPT IS IT FLOATING POINT
         BZ    FLPSTP                  NO
         XC    0(L'SGLOP,R12),0(R12)   CLEAR ENTRY
FLPSTP   LA    R12,L'SGLOP(R12)        TO NEXT ENTRY
         B     TSTOPND                 LOOP THRU TABLE
TSTPRIV  CLI   PRIVASM,1               PRIVILEGED INSTR O.K.
         BE    GETUSGTB                YES
         LA    R12,SGLOP               POINT TO OP-CODE TBL
TTOPND   CLI   0(R12),X'FF'            END OF TABLE
         BE    CKDBLS                  YES
         TM    ICLASS-INSTENT(R12),PRIV PRIVILEGED INSTR
         BZ    PRIVSTP                 NO
         XC    0(L'SGLOP,R12),0(R12)   YES, CLEAR ENTRY
PRIVSTP  LA    R12,L'SGLOP(R12)        TO NEXT ENTRY
         B     TTOPND                  LOOP THRU TABLE
CKDBLS   L     R12,DBLOPAD             @ 2-BYTE OP-CODE TBL
CKDBND   CLI   0(R12),X'FF'            END OF TBL
         BE    GETUSGTB                YES
         TM    ICLASS-INSTENT+2(R12),PRIV PRIVILEGED OP-CODE
         BZ    DBSTP                   NO
         XC    0(L'DBLOP,R12),0(R12)   YES, CLEAR ENTRY
DBSTP    LA    R12,L'DBLOP(R12)        TO NEXT ENTRY
         B     CKDBND                  LOOP THRU TABLE
*
******************************************************************
*                                                                *
* GET STORAGE FOR USING AND DSECT POINTER TABLES.                *
*                                                                *
******************************************************************
*
GETUSGTB GETMAIN R,LV=2864             GET STORAGE FOR USING TABLE
         MVI   0(R1),X'FF'             SET TABLE END INDIC
         ST    R1,USGSTRT              SAVE TABLE START ADDR
         ST    R1,USGCUR               SET TABLE CURRENT ADDR
         LA    R1,2816(R1)             COMPUTE TABLE END ADDR
         ST    R1,USGEND               SAVE USING TABLE END ADDR
         L     R2,INDCB                GET SYSIN DCB ADDR
         LA    R1,EOFCARD              GET EOF ADDR
         STCM  R1,7,33(R2)             SET EOF ADDR IN DCB
         GETMAIN R,LV=2864             GET STORAGE FOR DSECT TABLE
         MVI   0(R1),X'FF'             SET TABLE END ADDR
         ST    R1,DTBSTRT              SAVE DSECT TABLE START ADDR
         ST    R1,DTBCUR               SAVE DSECT TABLE CURRENT ADDR
         LA    R1,2816(R1)             COMPUTE TABLE END ADDR
         ST    R1,DTBEND               SAVE DSECT TABLE END ADDR
         L     R1,INDCB                @ SYSIN DCB
         TM    48(R1),X'10'            IS IT OPEN
         BZ    EOFCARD                 NO
*
*
*
******************************************************************
*                                                                *
* READ SYSIN CARDS, AND DISTRIBUTE TO THE APPROPRIATE PROCESSING *
* ROUTINE: USINGS, DSECTS, OR DATAS. DETECT ANY ERRORS AND PRINT *
* ALL CARDS WITH MESSAGES AS NECESSARY.                          *
*                                                                *
******************************************************************
*
RDCARD   EQU   *                       *** PROCESS SYSIN CARDS ***
         L     R1,INDCB                GET SYSIN DCB ADDR
         GET   (1)                     READ NEXT CARD
         MVC   WORKREC,0(R1)           MOVE IT TO WORK AREA
         NOP   MVPRT                   FIRST TIME SWITCH
         MVI   *-3,C'0'                RESET FIRST TIME SWITCH
         MVI   PCC,C'1'                SET SKIP TO HEAD
         MVC   PRT+10(26),=C'*** USER ENTERED CARDS ***'
         BAL   R9,PRINT                GO PRINT
MVPRT    MVC   PRT(80),WORKREC         CARD TO PRINT
RDGRTN   LA    R9,RCCKERR              GET RETURN ADDRESS
         CLC   WORKREC(5),=C'USING'    IS IT A USING CARD
         BE    USINGS                  YES
         CLC   WORKREC+9(5),=C'DSECT'  IS IT A DSECT HEADER
         BE    DSECTS                  YES
         CLC   WORKREC(4),=C'DATA'     IS IT DATA ONLY CARD
         BE    DATAS                   YES
         CLC   WORKREC(5),=C'ULABL'    IS IT A USER LABEL
         BE    ULABLS                  YES
         MVC   PRT+85(21),=C'UNIDENT OR OUT OF SEQ'
         MVI   USERR,X'FF'             SET ERROR FLAG
RCCKERR  NI    USERR,X'FE'             RESET CURRENT ERROR FLAG
         BAL   R9,PRINT                GO PRINT
         B     RDCARD                  CONTINUE
EOFCARD  CLI   USERR,0                 ANY ERRORS FOUND
         BNE   EOJ                     YES, EXIT
*
******************************************************************
*                                                                *
* CHECK FOR ANY USING CARDS ENTERED. IF NOT, NO PRE-ASSEMBLY IS  *
* NECESSARY. IF ANY USING CARDS FOUND, CREATE LABEL TABLE ENTRIES*
* SO THAT USING STATEMENTS WILL BE VALID.                        *
*                                                                *
******************************************************************
*
         L     R1,DATOCUR              GET CURRENT DATA ONLY @
         MVC   NOINAD,DATONLY          SAVE DATA ONLY TBL ADDR
         MVC   0(3,R1),HIVAL           SET END
         L     R11,USGSTRT             GET USING TBL ADDR
CUSNGND  CLI   0(R11),X'FF'            END OF TABLE
         BE    CKPRE                   GO CHECK FOR PRE-DISASM
         L     R10,CURRLBL             GET LABEL ADDRESS
         USING USINGD,R11
         USING LABELD,R10
         MVC   LBLADR,USVALU           OFFSET TO LABEL
         MVI   LBLTYP,C'L'             LABEL TYPE ENTRY
         MVI   LBLLEN,1                SET LENGTH TO 1
         MVI   LBLNAME,C'A'            1ST CHAR OF NAME
         LA    R12,USVALU              @ OFFSET
         BAL   R9,HEXPRT3              CONVERT
         MVC   LBLNAME+1(6),PRTABL     MIDDLE OF NAME
         MVI   LBLNAME+7,C' '          BLANK LAST POS
         LA    R10,L'LABEL(R10)        STEP TO NEXT LABEL
         ST    R10,CURRLBL             SAVE IN CURRLBL     FIX******
         MVC   0(3,R10),HIVAL          SET END VALUE       FIX******
         LA    R11,L'USING(R11)        STEP TO NEXT USING
         B     CUSNGND                 LOOP
         DROP  R10
         DROP  R11
CKPRE    L     R1,USGSTRT              GET USING TBL START ADDR
         CLI   0(R1),X'FF'             ANY ENTRIES
         BNE   MAINLINE                YES, GO TO PRE-DISASM
         B     EOJ                     OTHERWISE GET OUT
*
*
*
*
******************************************************************
*                                                                *
* EDIT USING CARDS FOR VALIDITY. PUT APPROPRIATE COMMENT IN PRINT*
* LINE WHEN INVALID. WHEN NO ERRORS FOUND, CREATE AN ENTRY IN THE*
* USING TABLE.                                                   *
*                                                                *
******************************************************************
*
USINGS   EQU   *                       *** USING CARD PROCESSING ***
         L     R12,USGCUR              GET CURRENT USING TBL ADDR
         C     R12,USGEND              END OF TBL
         BNL   UERR6                   YES, TABLE FULL
         USING USINGD,R12
         TR    WORKREC+6(6),TRHEX      TRANSLATE TO MAKE HEX
         TRT   WORKREC+6(6),TRTHEX     CHECK VALID
         BNZ   UERR1                   INVALID BEGIN ADDR
         TR    WORKREC+13(6),TRHEX     TRANSLATE TO MAKE HEX
         TRT   WORKREC+13(6),TRTHEX    CHECK VALID
         BNZ   UERR2                   INVALID END ADDR
         TR    WORKREC+20(1),TRHEX     TRANSLATE TO MAKE HEX
         TRT   WORKREC+20(1),TRTHEX    CHECK VALID
         BNZ   UERR3                   INVALID BASE REG
*        CLI   WORKREC+20,0            VALID BASE REG
*        BE    UERR3                   NO
         CLI   WORKREC+22,C'P'         VALID TYPE
         BE    CKINIT                  YES, PROGRAM BASE
         CLI   WORKREC+22,C'D'         VALID TYPE
         BNE   UERR8                   NO, ERROR
         L     R1,DTBSTRT              GET DSECT TABLE STRT
CKDSEND  CLI   0(R1),X'FF'             END OF TABLE
         BE    UERR5                   YES, MISSING DSECT
         CLC   0(8,R1),WORKREC+24      THIS THE DSECT ENTRY
         BE    USDSMV                  YES
         LA    R1,11(R1)               TO NEXT ENTRY
         B     CKDSEND                 LOOP THRU DSECT TABLE
USDSMV   MVC   USVALU,8(R1)            MOVE DSECT TBL ADDR
         B     USFINI                  CONTINUE
CKINIT   TR    WORKREC+24(6),TRHEX     TRANSLATE TO MAKE HEX
         TRT   WORKREC+24(6),TRTHEX    CHECK VALIDITY
         BNZ   UERR4                   INVALID BASE REG VALUE
         PACK  DBLWD(4),WORKREC+24(7)  PACK TO MAKE HEX
         MVC   USVALU,DBLWD            BASE REG VALUE TO USING TBL
USFINI   PACK  DBLWD(4),WORKREC+6(7)   PACK TO MAKE HEX
         MVC   USBGN,DBLWD             BEGIN ADDR TO USING TABLE
         PACK  DBLWD(4),WORKREC+13(7)  PACK TO MAKE HEX
         MVC   USEND,DBLWD             END ADDR TO USING TABLE
         TM    USEND+2,1               IS IT ODD
         BO    UERR2                   YES, ERROR
         CLI   WORKREC+22,C'D'         DSECT BASE
         BE    USFREG                  YES
         CLC   USEND,LENGTH+1          WITHIN PROGRAM
         BH    UERR2                   YES, ERROR
USFREG   MVC   USREG,WORKREC+20        BASE REG TO USING TABLE
         MVC   USTYPE,WORKREC+22       TYPE TO USING TABLE
         CLC   USBGN,USEND             END < BEGIN
         BH    UERR7                   YES, ERROR
         LA    R12,L'USING(R12)        TO NEXT USING TBL ENTRY
         MVI   0(R12),X'FF'            SET TABLE END INDIC
         ST    R12,USGCUR              SAVE UPDATED TABLE ADDR
         BR    R9                      EXIT
UERR1    MVC   PRT+85(22),=C'INVALID BEGIN COL 7-12'
         B     UERRS                   CONTINUE
UERR2    MVC   PRT+85(21),=C'INVALID END COL 14-19'
         B     UERRS                   CONTINUE
UERR3    MVC   PRT+85(18),=C'INVALID REG COL 21'
         B     UERRS                   CONTINUE
UERR4    MVC   PRT+85(25),=C'INVALID ADDRESS COL 25-30'
         B     UERRS                   CONTINUE
UERR5    MVC   PRT+85(25),=C'UNDEFINED DSECT COL 25-32'
         B     UERRS                   CONTINUE
UERR6    MVC   PRT+85(20),=C'OVER 256 USING CARDS'
         B     UERRS                   CONTINUE
UERR7    MVC   PRT+85(16),=C'END BEFORE BEGIN'
         B     UERRS                   CONTINUE
UERR8    MVC   PRT+85(19),=C'INVALID TYPE COL 23'
UERRS    MVI   USBGN,X'FF'             INSURE TABLE END INDIC
         MVI   USERR,X'FF'             SHOW ERROR
         BR    R9                      EXIT
         DROP  R12
*
*
*
******************************************************************
*                                                                *
* EDIT ULABL CARDS FOR VALIDITY. PUT APPROPRIATE COMMENT IN PRINT*
* LINE WHEN INVALID. WHEN NO ERRORS FOUND, CREATE AN ENTRY IN THE*
* LABEL TABLE. SEARCH FOR ANY TYPE A (ADCON) ENTRIES HAVING A    *
* SYMBOL OF AXXXXXX, WHERE XXXXXX IS THE HEX OFFSET TO THE USER  *
* LABEL. IF AN A TYPE ENTRY IS FOUND, CHANGE ITS SYMBOLIC NAME TO*
* THAT OF THE USER LABEL.                                        *
*                                                                *
******************************************************************
*
ULABLS   EQU   *                       PROCESS USER LABEL CARDS
         STM   R6,R12,ULSAV            SAVE REGS
         CLI   WORKREC+6,C' '          NAME VALID
         BE    ULERR1                  NO, 1ST CHAR CANNOT BE BLANK
         MVC   UNAME+1(6),WORKREC+15   BUILD AXXXXXX NAME
         TR    WORKREC+15(6),TRHEX     TRANSLATE TO MAKE HEX
         TRT   WORKREC+15(6),TRTHEX    CHECK VALID HEX
         BNZ   ULERR2                  NOT VALID
         MVZ   NUMCK,WORKREC+22        ZONES FOR NUMERIC TEST
         CLC   NUMCK(3),ZEROS          LENGTH IS NUMERIC
         BNE   ULERR3                  NO, ERROR
         L     R6,CURRLBL              GET CURRENT LABEL TABLE ADDRESS
         USING LABELD,R6
         C     R6,ENDLBL               END OF TABLE
         BNL   ULERR4                  YES, ERROR
         MVC   LBLNAME,WORKREC+6       NAME TO LABEL ENTRY
         MVI   LBLTYP,C'U'             TYPE TO LABEL ENTRY
         PACK  DBLWD,WORKREC+22(3)     PACK LENGTH
         CP    DBLWD,P256              LENGTH > 256
         BH    ULERR2                  YES, ERROR
         CVB   R12,DBLWD               CONVERT TO BINARY
         STC   R12,LBLLEN              LENGTH TO LABEL ENTRY
         PACK  DBLWD(4),WORKREC+15(7)  PACK TO MAKE VALID HEX
         MVC   LBLADR,DBLWD            OFFSET TO LABEL
         LA    R7,L'LABEL(R6)          @ NEXT LABEL ENTRY
         MVC   0(3,R7),HIVAL           SET END INDIC
         ST    R7,CURRLBL              SET NEW TABLE END ADDR
         LR    R7,R6                   SAVE NEW ENTRY ADDRESS
         L     R6,LBLTBL               GET 1ST LABEL ENTRY ADDR
ULBCKND  C     R6,CURRLBL              END OF TABLE
         BNL   ULXIT                   YES, EXIT
         CLI   LBLTYP,C'A'             IS IT ADCON ENTRY
         BNE   ULBSTEP                 NO
         CLC   LBLNAME,UNAME           ADCON SYMBOL AT USER LBL ADDR
         BNE   ULBSTEP                 NO
         MVC   LBLNAME,LBLNAME-LABEL(R7) SET USER SYMBOL IN ADCON
ULBSTEP  LA    R6,L'LABEL(R6)          TO NEXT LABEL ENTRY
         B     ULBCKND                 LOOP THRU LABEL TABLE
         B     ULXIT                   EXIT
ULERR1   MVC   PRT+85(21),=C'INVALID NAME COL 7-14'
         B     ULERRS                  CONTINUE
ULERR2   MVC   PRT+85(28),=C'INVALID HEX OFFSET COL 16-21'
         B     ULERRS                  CONTINUE
ULERR3   MVC   PRT+85(32),=C'INVALID DECIMAL LENGTH COL 23-25'
         B     ULERRS                  CONTINUE
ULERR4   MVC   PRT+85(20),=C'LABEL TABLE OVERFLOW'
ULERRS   MVI   USERR,X'FF'             SET ERROR FLAG
ULXIT    LM    R6,R12,ULSAV            RESTORE REGS
         BR    R9                      EXIT
*
*
*
******************************************************************
*                                                                *
* EDIT DSECT CARDS FOR VALIDITY. PUT APPROPRIATE COMMENT IN PRINT*
* LINE WHEN INVALID. WHEN NO ERRORS FOUND, CREATE AN ENTRY IN THE*
* DSECT HEADER TABLE, GETMAIN AN AREA TO CONTAIN THE FIELD       *
* DESCRIPTION ENTRIES, READ AND BUILD FIELD ENTRIES FOR ALL FIELD*
* DESCRIPTION CARDS ENTERED.                                     *
*                                                                *
******************************************************************
*
DSECTS   EQU   *                       *** DSECT PROCESSING ***
         ST    R9,DSCT9                SAVE RETURN ADDR
         CLI   WORKREC,C' '            NAME IS BLANK
         BE    DSERR1                  YES, ERROR
         MVZ   NUMCK,WORKREC+15        ZONES FOR CHECK
         CLC   NUMCK,ZEROS             IS NBR FIELDS NUMERIC
         BNE   DSERR2                  NO, ERROR
         L     R12,DTBCUR              GET CURRENT DSECT TBL ADDR
         C     R12,DTBEND              AT END OF TABLE
         BNL   DSERR3                  YES, ERROR
         MVC   0(8,R12),WORKREC        NAME TO DSECT TABLE
         PACK  DBLWD,WORKREC+15(4)     PACK NBR ENTRIES
         CVB   R10,DBLWD               CONVERT TO BINARY
         LA    R10,4(R10)              ADD FOR SAFETY
         MH    R10,DTBLEN              TIMES ENTRY LENGTH
         GETMAIN R,LV=(10)             GET STORAGE FOR FIELD TABLE
         STCM  R1,7,8(R12)             SAVE FIELD TABLE ADDRESS
         LA    R12,11(R12)             TO NEXT DSECT TABLE ENTRY
         ST    R12,DTBCUR              UPDATE CURRENT DSECT TBL ADDR
         MVI   0(R12),X'FF'            SET END INDIC
         LR    R12,R1                  COPY FIELD TABLE ADDR
         BAL   R9,PRINT                PRINT DSECT RECORD
         USING DSECTD,R12
         CVB   R11,DBLWD               NBR ENTRIES IN LOOP REG
RDFLD    L     R1,INDCB                GET SYSIN DCB ADDR
         GET   (1)                     READ NEXT CARD
         MVC   WORKREC,0(R1)           MOVE RECORD TO WORK AREA
         MVC   PRT(80),WORKREC         MOVE RECORD TO PRINT AREA
         CLI   WORKREC,C' '            NAME FIELD BLANK
         BE    DSERR1                  YES, ERROR
         MVC   DSNAME,WORKREC          NAME TO ENTRY
         MVI   DSLBTYP,C'L'            SET LABEL TYPE
         MVZ   NUMCK,WORKREC+9         ZONES FOR TEST
         CLC   NUMCK,ZEROS             IS OFFSET NUMERIC
         BNE   DSERR3                  NO, ERROR
         PACK  DBLWD,WORKREC+9(4)      PACK OFFSET
         CP    DBLWD,P4096             OFFSET > 4096
         BH    DSERR3                  YES, ERROR
         CVB   R1,DBLWD                CONVERT
         STCM  R1,7,DSOFSET            OFFSET TO TABLE ENTRY
         MVZ   NUMCK(3),WORKREC+14     ZONES FOR TEST
         CLC   NUMCK(3),ZEROS          IS LENGTH NUMERIC
         BNE   DSERR4                  NO, ERROR
         PACK  DBLWD,WORKREC+14(3)     PACK LENGTH
         CP    DBLWD,P256              LENGTH OVER 256
         BH    DSERR4                  YES, ERROR
         CVB   R1,DBLWD                CONVERT
         LTR   R1,R1                   LENGTH IS ZERO
         BZ    DSERR4                  YES, ERROR
         STC   R1,DSLENG               LENGTH TO TABLE ENTRY
         LA    R12,L'DSECT(R12)        TO NEXT ENTRY
         MVI   0(R12),X'FF'            SET TBL END INDIC
         BAL   R9,PRINT                GO PRINT CARD
         BCT   R11,RDFLD               LOOP THRU DSECT
         MVC   DSOFSET,HIVAL           TABLE STOPPER
         L     R9,DSCT9                GET RETURN ADDR
         BR    R9                      EXIT
DSERR1   MVC   PRT+85(20),=C'INVALID NAME COL 1-8'
         B     DSERRS                  CONTINUE
DSERR2   MVC   PRT+85(28),=C'INVALID NBR FIELDS COL 16-19'
         B     DSERRS                  CONTINUE
DSERR3   MVC   PRT+85(24),=C'INVALID OFFSET COL 10-13'
         B     DSERRS                  CONTINUE
DSERR4   MVC   PRT+85(24),=C'INVALID LENGTH COL 15-18'
         B     DSERRS                  CONTINUE
DSERRS   MVI   USERR,X'FF'             SHOW ERROR FOUND
         L     R9,DSCT9                GET RETURN ADDR
         BR    R9                      EXIT
         DROP  R12
*
*
*
******************************************************************
*                                                                *
* EDIT DATA ONLY CARDS FOR VALIDITY. PLACE ERROR DESCRIPTION IN  *
* PRINT LINE IF ERRORS FOUND. CREATE DATA ONLY TABLE ENTRY IF NO *
* ERRORS ARE FOUND.                                              *
*                                                                *
******************************************************************
*
DATAS    EQU   *                       *** DATA CARD PROCESSING ***
         TR    WORKREC+5(6),TRHEX      TRANSLATE TO MAKE HEX
         TRT   WORKREC+5(6),TRTHEX     CHECK VALID
         BNZ   DERR1                   INVALID HEX
         TR    WORKREC+12(6),TRHEX     TRANSLATE TO MAKE HEX
         TRT   WORKREC+12(6),TRTHEX    CHECK VALID
         BNZ   DERR2                   INVALID HEX
         PACK  DBLWD(4),WORKREC+5(7)   PACK TO MAKE HEX
         PACK  DBLWD+4(4),WORKREC+12(7) PACK TO MAKE HEX
         CLC   DBLWD(3),DBLWD+4        CHECK 1ST LOW
         BNL   DERR3                   1ST NOT LOW, ERROR
         L     R1,DATOCUR              GET TBL ADDR
         MVC   0(3,R1),DBLWD           MOVE 1ST OFFSET TO TBL
         MVC   3(3,R1),DBLWD+4         MOVE 2ND OFFSET TO TBL
         LA    R1,6(R1)                TO NEXT ENTRY
         ST    R1,DATOCUR              SAVE CURRENT ENTRY ADDR
         BR    R9                      EXIT
DERR1    MVC   PRT+85(22),=C'1ST OFFSET INVALID HEX'
         B     DERRS                   CONTINUE
DERR2    MVC   PRT+85(22),=C'2ND OFFSET INVALID HEX'
         B     DERRS                   CONTINUE
DERR3    MVC   PRT+85(23),=C'END OFFSET BEFORE BEGIN'
DERRS    MVI   USERR,X'FF'             FLAG ERROR
         BR    R9                      EXIT
*
*
*
******************************************************************
*                                                                *
* MAINLINE ROUTINE FOR THE PRE-DISASSEMBLY. PURPOSE OF THIS PART *
* OF THE PROGRAM IS TO ATTEMPT TO CREATE A LABEL ENTRY FOR INSTR-*
* UCTIONS HAVING STORAGE OPERANDS. THE RESULTING LABEL TABLE WILL*
* BE SORTED, AND DUPLICATE ENTRIES ELIMINATED BEFORE EXIT FROM   *
* THIS PHASE OF DISASSEMBLY.                                     *
*                                                                *
******************************************************************
*
MAINLINE EQU   *                       MAINLINE ROUTINE
         L     R6,LBLTBL               @ LABEL TABLE
         USING LABELD,R6
         MVC   TXTCURR,TXTSTRT         COPY TEXT START ADDR
GETCURR  L     R7,TXTCURR              @ CURRENT TXT BYTE
         C     R7,TXTEND               END OF TEXT
         BNL   EOJ                     YES             FIX********
         LR    R12,R7                  COPY TEXT ADDR
         S     R12,TXTSTRT             COMPUTE OFFSET
         ST    R12,TXTOFST             SAVE OFFSET TO THIS BYTE
         CLC   NEXCHG,TXTOFSET         TIME TO CHANGE USING TBLS
         BH    CKDARNG                 NO
         BAL   R9,NEXUSG               YES, GO DO IT
CKDARNG  L     R12,NOINAD              GET DATA ONLY ENTRY ADDRESS
         CLC   TXTOFSET,0(R12)         NOT YET TO THIS RANGE
         BL    CKLOSEQ                 TRUE
         CLC   TXTOFSET,3(R12)         NOW IN THE RANGE
         BNH   CONST                   TRUE, TREAT AS CONSTANT
         LA    R12,6(R12)              PAST THIS ONE, STEP TO NEXT