*          DATA SET MACRO      AT LEVEL 001 AS OF 06/14/78
         MACRO
         OSINIT &NAME,&BASE,&SAVE
         LCLA  &Z
         LCLC  &A,&B,&C,&D,&E,&F,&G,&H
         AIF (N'&BASE GT 0 AND N'&BASE LE 8 ).BASEOK
         MNOTE ,'NUMBER OF BASE REGISTERS MUST BE 1 TO 8'
         MEXIT
.BASEOK  ANOP
&Z       SETA  0
.LOOP    ANOP
&Z       SETA  1+&Z
&A       SETC   '&A,&BASE(&Z)'
         AIF   (N'&BASE EQ &Z).DONE
         AGO   .LOOP
.DONE    ANOP
         AIF   (T'&BASE(1) NE 'N').BADREG
&NAME    CSECT
         B     50(15)          AROUND CONSTANTS
         DC    C'PROG ID:'
         DC    CL8'&NAME'
         DC    C'  DATE: '
         DC    CL8'&SYSDATE'
         DC    C'  TIME: '
         DC    CL6'&SYSTIME'
         DS    0H
         SAVE  (14,12)
         USING &NAME&A
         LR    &BASE(1),15
         AIF   (N'&BASE EQ 1 ).FINISH
        AIF   (T'&BASE(2) NE 'N').BADREG
         LA    &BASE(2),4095(&BASE(1))
         LA    &BASE(2),1(&BASE(2))
         AIF   (N'&BASE  EQ 2 ).FINISH
        AIF   (T'&BASE(3) NE 'N').BADREG
         LA    &BASE(3),4095(&BASE(2))
         LA    &BASE(3),1(&BASE(3))
         AIF   (N'&BASE  EQ 3 ).FINISH
        AIF   (T'&BASE(4) NE 'N').BADREG
         LA    &BASE(4),4095(&BASE(3))
         LA    &BASE(4),1(&BASE(4))
         AIF   (N'&BASE  EQ 4 ).FINISH
        AIF   (T'&BASE(5) NE 'N').BADREG
         LA    &BASE(5),4095(&BASE(4))
         LA    &BASE(5),1(&BASE(5))
         AIF   (N'&BASE  EQ 5 ).FINISH
         AIF   (T'&BASE(6) NE 'N').BADREG
         LA    &BASE(6),4095(&BASE(5))
         LA    &BASE(6),1(&BASE(6))
         AIF   (N'&BASE  EQ 6 ).FINISH
         AIF   (T'&BASE(7) NE 'N').BADREG
         LA    &BASE(7),4095(&BASE(6))
         LA    &BASE(7),1(&BASE(7))
         AIF   (N'&BASE  EQ 7 ).FINISH
         AIF   (T'&BASE(8) NE 'N').BADREG
         LA    &BASE(8),4095(&BASE(7))
         LA    &BASE(8),1(&BASE(8))
.FINISH  ANOP
         AIF   ('&SAVE' EQ 'NO').NOSAVE
         LA    15,&SAVE
         ST    15,8(13)
         ST    13,4(15)
         LR    13,15
         MEXIT
.NOSAVE  ANOP
         MNOTE *,'NO SAVE AREA SPECIFIED, MUST BE USER SUPPLIED'
         MEXIT
.BADREG ANOP
         MNOTE ,'BASE REGISTERS MUST BE NUMERIC'
         MEND
