         MACRO
&NAME    SBA   &POS,&OVRD
         LCLC  &BIT0,&BIT1,&BIT2,&BIT3,&BIT4,&BIT5,&BIT6,&BIT7
         LCLC  &BIT8,&BIT9,&BIT10,&BIT11,&BIT12,&BIT13,&BIT14,&BIT15
         LCLC  &ADR1,&ADR2,&TYP
         LCLA  &DISP
         AIF   ('&OVRD' EQ '3C').OVRD
&TYP     SETC  '11'
         AGO   .NOVRD
.OVRD    ANOP
&TYP     SETC  '&OVRD'
.NOVRD   ANOP
         AIF   ('&POS(2)' NE '').NASB
&DISP    SETA  &POS
         AGO   .ASB
.NASB    ANOP
&DISP    SETA  80*(&POS(1)-1)+&POS(2)-1
.ASB     ANOP
&BIT0    SETC  '0'
&BIT1    SETC  '1'
&BIT2    SETC  '0'
&BIT3    SETC  '0'
&BIT4    SETC  '0'
&BIT5    SETC  '0'
&BIT6    SETC  '0'
&BIT7    SETC  '0'
&BIT8    SETC  '0'
&BIT9    SETC  '1'
&BIT10   SETC  '0'
&BIT11   SETC  '0'
&BIT12   SETC  '0'
&BIT13   SETC  '0'
&BIT14   SETC  '0'
&BIT15   SETC  '0'
         AIF   (&DISP LT 1024).NOT3
&DISP    SETA  &DISP-1024
&BIT3    SETC  '1'
.NOT3    ANOP
         AIF   (&DISP LT 512).NOT4
&DISP    SETA  &DISP-512
&BIT4    SETC  '1'
.NOT4    ANOP
         AIF   (&DISP LT 256).NOT5
&DISP    SETA  &DISP-256
&BIT5    SETC  '1'
.NOT5    ANOP
         AIF   (&DISP LT 128).NOT6
&DISP    SETA  &DISP-128
&BIT6    SETC  '1'
.NOT6    ANOP
         AIF   (&DISP LT 64).NOT7
&DISP    SETA  &DISP-64
&BIT7    SETC  '1'
.NOT7    ANOP
         AIF   (&DISP LT 32).NOT10
&DISP    SETA  &DISP-32
&BIT10   SETC  '1'
.NOT10   ANOP
         AIF   (&DISP LT 16).NOT11
&DISP    SETA  &DISP-16
&BIT11   SETC  '1'
.NOT11   ANOP
         AIF   (&DISP LT 8).NOT12
&DISP    SETA  &DISP-8
&BIT12   SETC  '1'
.NOT12   ANOP
         AIF   (&DISP LT 4).NOT13
&DISP    SETA  &DISP-4
&BIT13   SETC  '1'
.NOT13   ANOP
         AIF   (&DISP LT 2).NOT14
&DISP    SETA  &DISP-2
&BIT14   SETC  '1'
.NOT14   ANOP
         AIF   (&DISP LT 1).NOT15
&BIT15   SETC  '1'
.NOT15   ANOP
&ADR1    SETC  '&BIT1'.'&BIT2'.'&BIT3'.'&BIT4'.'&BIT5'.'&BIT6'.'&BIT7'
&ADR2    SETC  '&BIT9'.'&BIT10'.'&BIT11'.'&BIT12'.'&BIT13'.'&BIT14'
&ADR2    SETC  '&ADR2'.'&BIT15'
         AIF   ('&ADR1'(4,4) GT '1001').NOT0
         AIF   ('&ADR1'(4,4) EQ '0000' AND '&ADR1'(2,2) NE '11').NOT0
         AIF   ('&ADR1'(2,6) EQ '100001').NOT0
&BIT0    SETC  '1'
.NOT0    ANOP
         AIF   ('&ADR2'(4,4) GT '1001').NOT8
         AIF   ('&ADR2'(4,4) EQ '0000' AND '&ADR2'(2,2) NE '11').NOT8
         AIF   ('&ADR2'(2,6) EQ '100001').NOT8
&BIT8    SETC  '1'
.NOT8    ANOP
&ADR1    SETC  '&BIT0'.'&ADR1'
&ADR2    SETC  '&BIT8'.'&ADR2'
&NAME    DC    X'&TYP',B'&ADR1',B'&ADR2'
         MEND
