         MACRO
&NAME    SF
         LCLC  &BIT2,&BIT3,&BIT4,&BIT5,&BIT7,&CURR,&ATTR
         LCLA  &N
&BIT2    SETC  '0'
&BIT3    SETC  '0'
&BIT4    SETC  '0'
&BIT5    SETC  '0'
&BIT7    SETC  '0'
.LOOP    ANOP
&N       SETA  &N+1
&CURR    SETC  '&SYSLIST(1,&N)'
         AIF   ('&CURR' EQ '').ESCAN
         AIF   ('&CURR' EQ 'PROT').PL
         AIF   ('&CURR' EQ 'PL').PL
         AIF   ('&CURR' EQ 'ASKIP').PS
         AIF   ('&CURR' EQ 'PS').PS
         AIF   ('&CURR' EQ 'UNPROT').LOOP
         AIF   ('&CURR' EQ 'UP').LOOP
         AIF   ('&CURR' EQ 'NUM').NU
         AIF   ('&CURR' EQ 'NU').NU
         AIF   ('&CURR' EQ 'AN').LOOP
         AIF   ('&CURR' EQ 'NORM').LOOP
         AIF   ('&CURR' EQ 'NI').LOOP
         AIF   ('&CURR' EQ 'BRT').HI
         AIF   ('&CURR' EQ 'HI').HI
         AIF   ('&CURR' EQ 'DRK').ND
         AIF   ('&CURR' EQ 'ND').ND
         AIF   ('&CURR' EQ 'SPD').SPD
         AIF   ('&CURR' EQ 'NSP').LOOP
         AIF   ('&CURR' EQ 'FSET').MDTON
         AIF   ('&CURR' EQ 'MDTON').MDTON
         AIF   ('&CURR' EQ 'MDTOFF').LOOP
         AIF   ('&CURR' EQ 'ON').MDTON
         AIF   ('&CURR' EQ 'OFF').LOOP
         MNOTE 4,&CURR IS NOT A SF OPTION'
         AGO   .LOOP
.PL      ANOP
&BIT2    SETC  '1'
&BIT3    SETC  '0'
         AGO   .LOOP
.PS      ANOP
&BIT2    SETC  '1'
&BIT3    SETC  '1'
         AGO   .LOOP
.NU      ANOP
&BIT3    SETC  '1'
         AGO   .LOOP
.HI      ANOP
&BIT4    SETC  '1'
         AGO   .LOOP
.ND      ANOP
&BIT4    SETC  '1'
&BIT5    SETC  '1'
         AGO   .LOOP
.SPD     ANOP
&BIT5    SETC  '1'
         AGO   .LOOP
.MDTON   ANOP
&BIT7    SETC  '1'
         AGO   .LOOP
.ESCAN   ANOP
&ATTR    SETC  '1'.'&BIT2'.'&BIT3'.'&BIT4'.'&BIT5'.'0'.'&BIT7'
         AIF   ('&ATTR'(4,4) GT '1001').USE0
         AIF ('&ATTR'(4,4) EQ '0000' AND '&ATTR'(2,6) NE '110000').USE0
         AIF   ('&ATTR'(2,6) EQ '100001').USE0
&ATTR    SETC  '1'.'&ATTR'
         AGO   .EOJ
.USE0    ANOP
&ATTR    SETC  '0'.'&ATTR'
.EOJ     ANOP
&NAME    DC    X'1D',B'&ATTR'
         MEND
