         MACRO
&NAME    KEYT  &KEYWORD,&RTN,&AREA,&TYPE,&VALCNT,&FIELD1=,&FIELD2=,    X
               &FIELD3=,&FIELD4=,&FIELD5=,&FIELD6=,&FIELD7=,           X
               &FIELD8=,&FIELD9=,&FIELD10=,&FIELD11=,&FIELD12=,        X
               &FIELD13,&FIELD14=,&FIELD15=,&END=,                     X
               &LEN=
         LCLA  &KVVN,&CNTR1,&KVLL,&CNTR2
         LCLC  &P1,&P2,&P3,&P4,&LEN1,&LEN2
         AIF   ('&SYSLIST(1)' NE '').KVRM020 ONLY REQUIRED KEYWORD
         MNOTE 8,'1ST PARM MISSING AND IS REQUIRED'
         MEXIT
.KVRM020 ANOP
&KVLL    SETA  K'&SYSLIST(1)-1     SET KEYWORD LENGTH-1
&NAME    DC    AL1(&KVLL)          KEY LENGTH-1
         AIF   ('&SYSLIST(2)' NE '').KVRM030 IS EXIT RTN SPECIFIED
         DC    SL2(0)              EXIT RTN NOT SPECIFIED
         DC    SL2(0)              EXIT PARM NOT SPECIFIED
         AGO   .KVRM049
.KVRM030 ANOP
         DC    SL2(&SYSLIST(2,1))  EXIT ROUTINE ADDR
         AIF   (N'&SYSLIST(2) NE 1).KVRM046
         DC    SL2(0)              NO RTN PARM INFO REQUESTED
         AGO   .KVRM049
.KVRM046 ANOP
         DC    SL2(&SYSLIST(2,2))  EXIT RTN PARM SPECIFIED
.KVRM049 ANOP
         AIF   ('&SYSLIST(3)' NE '').KVRM050
         DC    SL2(0)              NO AREA SPECIFIED
         AGO   .KVRM060
.KVRM050 ANOP
         DC    SL2(&AREA)          AREA ADDR SPECIFIED
.KVRM060 ANOP
         AIF   ('&LEN' NE '').KVRM070
         DC    AL1(0)              VALUE LENGTH LOW DEFAULT
         DC    AL1(0)              VALUE LENGTH HIGH DEFAULT
         AGO   .KVRM078
.KVRM070 ANOP
&LEN1    SETC  '&LEN(1)'
&LEN2    SETC  '&LEN(2)'
         AIF   ('&LEN1' NE '').KVRM074
         DC    AL1(1)              VALUE LENGTH LOW IMPLIED
         AGO   .KVRM077
.KVRM074 ANOP
         DC    AL1(&LEN1)          VALUE LENGTH LOW SPECIFIED
.KVRM076 ANOP
         AIF   ('&LEN2' NE '').KVRM077
         DC    AL1(&LEN1)          VALUE LENGTH HIGH SPECIFIED
         AGO   .KVRM078
.KVRM077 ANOP
         DC    AL1(&LEN2)          VALUE LENGTH HIGH SPECIFIED
.KVRM078 ANOP
         AIF   (N'&SYSLIST(5) NE 0).KVRM090 VALUE COUNT SPECIFIED
         DC    AL1(1)              VALUE COUNT LOW DEFAULT
         DC    AL1(1)              VALUE COUNT HIGH DEFAULT
         AGO   .KVRM110
.KVRM090 ANOP
         AIF   (N'&SYSLIST(5) NE 1).KVRM094
         AIF   ('&SYSLIST(5,1)' EQ '(').KVRM094
         DC    AL1(0)              VALUE COUNT LOW IMPLIED
         DC    AL1(&VALCNT)        VALUE COUNT HIGH SPECIFIED
         AGO   .KVRM110
.KVRM094 ANOP
         AIF   ('&SYSLIST(5,1)' EQ ')').KVRM096
         DC    AL1(&SYSLIST(5,1))  VALUE COUNT LOW
         DC    AL1(&SYSLIST(5,2))  VALUE COUNT HIGH
         AGO   .KVRM110
.KVRM096 ANOP
         DC    AL1(&SYSLIST(5,1))  VALUE COUNT HIGH
.KVRM110 ANOP
         AIF   ('&SYSLIST(4)' NE '').KVRM120
         DC    X'00'               NO VALUE VALIDATION REQUESTED
         AGO   .KVRM160
.KVRM120 ANOP
         AIF   ('&SYSLIST(4)' NE 'ALPHA').KVRM130
         DC    X'01'               ALPHA VALIDATION REQUESTED
         AGO   .KVRM160
.KVRM130 ANOP
         AIF   ('&SYSLIST(4)' NE 'NUMERIC').KVRM140
         DC    X'02'               NUMERIC VALIDATION REQUESTED
         AGO   .KVRM160
.KVRM140 ANOP
         AIF   ('&SYSLIST(4)' NE 'ALPHANUM').KVRM150
         DC    X'03'               ALPHANUM VALIDATION REQUESTED
         AGO   .KVRM160
.KVRM150 ANOP
         MNOTE 8,'INVALID VALIDATION TYPE SPECIFIED  &TYPE'
.KVRM160 ANOP
         AIF   ('&FIELD1' EQ '' ).KVRM166
&KVVN    SETA  &KVVN+1
         AIF   ('&FIELD2' EQ '' ).KVRM166
&KVVN    SETA  &KVVN+1
         AIF   ('&FIELD3' EQ '' ).KVRM166
&KVVN    SETA  &KVVN+1
         AIF   ('&FIELD4' EQ '' ).KVRM166
&KVVN    SETA  &KVVN+1
         AIF   ('&FIELD5' EQ '' ).KVRM166
&KVVN    SETA  &KVVN+1
         AIF   ('&FIELD6' EQ '' ).KVRM166
&KVVN    SETA  &KVVN+1
         AIF   ('&FIELD7' EQ '' ).KVRM166
&KVVN    SETA  &KVVN+1
         AIF   ('&FIELD8' EQ '' ).KVRM166
&KVVN    SETA  &KVVN+1
         AIF   ('&FIELD9' EQ '' ).KVRM166
&KVVN    SETA  &KVVN+1
         AIF   ('&FIELD10' EQ '' ).KVRM166
&KVVN    SETA  &KVVN+1
         AIF   ('&FIELD11' EQ '' ).KVRM166
&KVVN    SETA  &KVVN+1
         AIF   ('&FIELD12' EQ '' ).KVRM166
&KVVN    SETA  &KVVN+1
         AIF   ('&FIELD13' EQ '' ).KVRM166
&KVVN    SETA  &KVVN+1
         AIF   ('&FIELD14' EQ '' ).KVRM166
&KVVN    SETA  &KVVN+1
         AIF   ('&FIELD15' EQ '' ).KVRM166
&KVVN    SETA  &KVVN+1
.KVRM166 ANOP
         DC    AL1(&KVVN)          COUNT OF FIELDS SPECIFIED
         DC    C'&KEYWORD'         REQUESTED KEYWORD
         AGO   .KVRM300
.KVRM180 ANOP
         AIF   ('&END' NE 'YES').KVRM190
         DC    X'FFFF'             END OF TABLE INDICATIOR
.KVRM190 ANOP
         MEXIT
.KVRM300 ANOP
         AIF   ('&FIELD1' EQ '').KVRM180
&CNTR1   SETA  1
&P1      SETC  '&FIELD1(1)'
&P2      SETC  '&FIELD1(2)'
&P3      SETC  '&FIELD1(3)'
&P4      SETC  '&FIELD1(4)'
         AGO   .KVRM500
.KVRM320 ANOP
         AIF   ('&FIELD2' EQ '').KVRM180
&CNTR1   SETA  2
&P1      SETC  '&FIELD2(1)'
&P2      SETC  '&FIELD2(2)'
&P3      SETC  '&FIELD2(3)'
&P4      SETC  '&FIELD2(4)'
         AGO   .KVRM500
.KVRM330 ANOP
         AIF   ('&FIELD3' EQ '').KVRM180
&CNTR1   SETA  3
&P1      SETC  '&FIELD3(1)'
&P2      SETC  '&FIELD3(2)'
&P3      SETC  '&FIELD3(3)'
&P4      SETC  '&FIELD3(4)'
         AGO   .KVRM500
.KVRM340 ANOP
         AIF   ('&FIELD4' EQ '').KVRM180
&CNTR1   SETA  4
&P1      SETC  '&FIELD4(1)'
&P2      SETC  '&FIELD4(2)'
&P3      SETC  '&FIELD4(3)'
&P4      SETC  '&FIELD4(4)'
         AGO   .KVRM500
.KVRM350 ANOP
         AIF   ('&FIELD5' EQ '').KVRM180
&CNTR1   SETA  5
&P1      SETC  '&FIELD5(1)'
&P2      SETC  '&FIELD5(2)'
&P3      SETC  '&FIELD5(3)'
&P4      SETC  '&FIELD5(4)'
         AGO   .KVRM500
.KVRM360 ANOP
         AIF   ('&FIELD6' EQ '').KVRM180
&CNTR1   SETA  6
&P1      SETC  '&FIELD6(1)'
&P2      SETC  '&FIELD6(2)'
&P3      SETC  '&FIELD6(3)'
&P4      SETC  '&FIELD6(4)'
         AGO   .KVRM500
.KVRM370 ANOP
         AIF   ('&FIELD7' EQ '').KVRM180
&CNTR1   SETA  7
&P1      SETC  '&FIELD7(1)'
&P2      SETC  '&FIELD7(2)'
&P3      SETC  '&FIELD7(3)'
&P4      SETC  '&FIELD7(4)'
         AGO   .KVRM500
.KVRM380 ANOP
         AIF   ('&FIELD8' EQ '').KVRM180
&CNTR1   SETA  8
&P1      SETC  '&FIELD7(1)'
&P2      SETC  '&FIELD7(2)'
&P3      SETC  '&FIELD7(3)'
&P4      SETC  '&FIELD7(4)'
         AGO   .KVRM500
.KVRM390 ANOP
         AIF   ('&FIELD9' EQ '').KVRM180
&CNTR1   SETA  9
&P1      SETC  '&FIELD7(1)'
&P2      SETC  '&FIELD7(2)'
&P3      SETC  '&FIELD7(3)'
&P4      SETC  '&FIELD7(4)'
         AGO   .KVRM500
.KVRM3A0 ANOP
         AIF   ('&FIELD10' EQ '').KVRM180
&CNTR1   SETA  10
&P1      SETC  '&FIELD7(1)'
&P2      SETC  '&FIELD7(2)'
&P3      SETC  '&FIELD7(3)'
&P4      SETC  '&FIELD7(4)'
         AGO   .KVRM500
.KVRM3B0 ANOP
         AIF   ('&FIELD11' EQ '').KVRM180
&CNTR1   SETA  11
&P1      SETC  '&FIELD7(1)'
&P2      SETC  '&FIELD7(2)'
&P3      SETC  '&FIELD7(3)'
&P4      SETC  '&FIELD7(4)'
         AGO   .KVRM500
.KVRM3C0 ANOP
         AIF   ('&FIELD12' EQ '').KVRM180
&CNTR1   SETA  12
&P1      SETC  '&FIELD7(1)'
&P2      SETC  '&FIELD7(2)'
&P3      SETC  '&FIELD7(3)'
&P4      SETC  '&FIELD7(4)'
         AGO   .KVRM500
.KVRM3D0 ANOP
         AIF   ('&FIELD13' EQ '').KVRM180
&CNTR1   SETA  13
&P1      SETC  '&FIELD7(1)'
&P2      SETC  '&FIELD7(2)'
&P3      SETC  '&FIELD7(3)'
&P4      SETC  '&FIELD7(4)'
         AGO   .KVRM500
.KVRM3E0 ANOP
         AIF   ('&FIELD14' EQ '').KVRM180
&CNTR1   SETA  14
&P1      SETC  '&FIELD7(1)'
&P2      SETC  '&FIELD7(2)'
&P3      SETC  '&FIELD7(3)'
&P4      SETC  '&FIELD7(4)'
         AGO   .KVRM500
.KVRM3F0 ANOP
         AIF   ('&FIELD15' EQ '').KVRM180
&CNTR1   SETA  15
&P1      SETC  '&FIELD7(1)'
&P2      SETC  '&FIELD7(2)'
&P3      SETC  '&FIELD7(3)'
&P4      SETC  '&FIELD7(4)'
         AGO   .KVRM500
.KVRM500 ANOP
         AIF   ('&P1' NE '').KVRM720
         DC    X'00'               NO VALUE IS SPECIFIED
         AGO   .KVRM730
.KVRM720 ANOP
&CNTR2   SETA  K'&P1
         DC    AL1(&CNTR2)         LENGTH OF VALUE SPECIFIED
.KVRM730 ANOP
         AIF   ('&P2' EQ '').KVRM900
         AIF   ('&P2' NE 'N').KVRM750
         DC    X'01'               N  OP CODE
         AGO   .KVRM800
.KVRM750 ANOP
         AIF   ('&P2' NE 'O').KVRM760
         DC    X'02'               O  OP CODE
         AGO   .KVRM800
.KVRM760 ANOP
         AIF   ('&P2' NE 'M').KVRM770
         DC    X'03'               M  OP CODE
         AGO   .KVRM800
.KVRM770 ANOP
         AIF   ('&P2' NE 'X').KVRM780
         DC    X'04'               X OP CODE
         AGO   .KVRM800
.KVRM780 ANOP
         MNOTE 8,'INVALID OP SPECIFIED IN FIELDN='
         MEXIT
.KVRM800 ANOP
         AIF   ('&P3' NE '').KVRM820
         MNOTE 8,'TO ADDR REQ AND NOT SPECIFIED IN FIELDN='
         MEXIT
.KVRM820 ANOP
         DC    SL2(&P3)            TO ADDRESS
         AIF   ('&P4' NE '').KVRM830
         MNOTE 8,'FROM ADDR REQ AND NOT SPECIFIED IN FIELDN='
         MEXIT
.KVRM830 ANOP
         DC    SL2(&P4)            FROM ADDRESS
         DC    AL2(L'&P3)          LENGTH OF TO ADDRESS
.KVRM834 ANOP
         AIF   ('&P1' NE '').KVRM840
         AGO   .KVRM950
.KVRM840 ANOP
         DC    C'&P1'              VALUE CONSTANT
         AGO   .KVRM950
.KVRM900 ANOP
         AIF   ('&P3' EQ '').KVRM920
         MNOTE 8,'MISSING PARMS IN FIELDN= PARAMETER'
         MEXIT
.KVRM920 ANOP
         AIF   ('&P4' EQ '').KVRM930
         MNOTE 8,'MISSING PARMS IN FIELDN= PARAMETER'
         MEXIT
.KVRM930 ANOP
         DC    X'00'               NO OP CODE
         DC    SL2(0)              NO TO ADDR
         DC    SL2(0)              NO FROM ADDR
         DC    SL2(0)              NO TO LENGTH
.KVRM950 ANOP
         AIF   (&CNTR1 EQ 1).KVRM320
         AIF   (&CNTR1 EQ 2).KVRM330
         AIF   (&CNTR1 EQ 3).KVRM340
         AIF   (&CNTR1 EQ 4).KVRM350
         AIF   (&CNTR1 EQ 5).KVRM360
         AIF   (&CNTR1 EQ 6).KVRM370
         AIF   (&CNTR1 EQ 7).KVRM380
         AIF   (&CNTR1 EQ 8).KVRM390
         AIF   (&CNTR1 EQ 9).KVRM3A0
         AIF   (&CNTR1 EQ 10).KVRM3B0
         AIF   (&CNTR1 EQ 11).KVRM3C0
         AIF   (&CNTR1 EQ 12).KVRM3D0
         AIF   (&CNTR1 EQ 13).KVRM3E0
         AIF   (&CNTR1 EQ 14).KVRM3F0
         AIF   (&CNTR1 EQ 15).KVRM180
         MEND
