         MACRO ,                   FASTPOST/QUICKPOST
&NAME    #FPOST &ECB,&CODE
         LCLC  &P
&NAME    IHBINNRA &ECB,&CODE
&P       SETC  'IHB&SYSNDX'
         ICM   0,8,=X'40'               INSERT POST BIT TO HI BYTE
         ICM   15,15,0(1)               LOAD ECB
         BM    &P                       AND IF WAIT BIT ON, GO TO POST
         CS    15,0,0(1)                SET POST BIT IF ECB UNCHANGED
         BE    &P+2                     AND IF SUCCESSFUL, SKIP POST
&P       SVC   2                        ISSUE POST SVC
         MEND
