         MACRO
&NAME    IEFCNPPW
         TITLE 'DYNAMIC PROCLIB WORK AREA'
***********************************************************************
*                                                                     *
*        PPWDSECT                                                     *
*        ********                                                     *
*                                                                     *
*        THE FOLLOWING IS THE DYNAMIC PROCEDURE LIBRARY WORK AREA.    *
*                                                                     *
*        ANY ADDITIONS OR DELETIONS MUST BE DONE AT THE END OF        *
*        THIS AREA, AS AN OBJECT CODE ONLY MODULE REFERS TO MANY      *
*        FIELDS WITHIN THIS AREA.                                     *
*                                                                     *
***********************************************************************
*
PPWDSECT DSECT                     USER PROCLIB WORK AREA
*
PPWPPWID DS    0CL4                CONTROL BLOCK ID
PPWIDPPW EQU   C'PPW '             EQUATE FOR EYECATCHER
PPWVPPSA DS    9D                  SAVE AREA FOR MAIN LEVEL
PPWVPPDB DS    0D                  DEBUGGING STUFF
PPWVPPCN DS    F                   COUNT OF TIMES ENTERED
PPWVPPRT DS    A                   RETRY ADDRESS
*
PPWVSTID DS    0CL4                SAVE AREA ID
PPWIDVST EQU   C'VST '             EQUATE FOR EYECATCHER
PPWVSTSA DS    9D                  SAVE AREA FOR IEFCNVST LEVEL
PPWVSTDB DS    0D                  DEBUGGING STUFF
PPWVSTCN DS    F                   COUNT OF TIMES ENTERED
PPWVSTRT DS    A                   RETRY ADDRESS
*
PPWVGSID DS    0CL4                SAVE AREA ID
PPWIDVGS EQU   C'VGS '             EQUATE FOR EYECATCHER
PPWVGSSA DS    9D                  SAVE AREA FOR IEFCNVGS LEVEL
PPWVGSDB DS    0D                  DEBUGGING STUFF
PPWVGSCN DS    F                   COUNT OF TIMES ENTERED
PPWVGSRT DS    A                   RETRY ADDRESS
*
PPWVXTID DS    0CL4                SAVE AREA ID
PPWIDVXT EQU   C'VXT '             EQUATE FOR EYECATCHER
PPWVXTSA DS    9D                  SAVE AREA FOR IEFCNVXT LEVEL
PPWVXTDB DS    0D                  DEBUGGING STUFF
PPWVXTCN DS    F                   COUNT OF TIMES ENTERED
PPWVXTRT DS    A                   RETRY ADDRESS
*
PPWVJPID DS    0CL4                SAVE AREA ID
PPWIDVJP EQU   C'VJP '             EQUATE FOR EYECATCHER
PPWVJPSA DS    9D                  SAVE AREA FOR IEFCNVJP LEVEL
PPWVJPDB DS    0D                  DEBUGGING STUFF
PPWVJPCN DS    F                   COUNT OF TIMES ENTERED
PPWVJPRT DS    A                   RETRY ADDRESS
*
PPWVEXID DS    0CL4                SAVE AREA ID
PPWIDVEX EQU   C'VEX '             EQUATE FOR EYECATCHER
PPWVEXSA DS    9D                  SAVE AREA FOR IEFCNVEX LEVEL
PPWVEXDB DS    0D                  DEBUGGING STUFF
PPWVEXCN DS    F                   COUNT OF TIMES ENTERED
PPWVEXRT DS    A                   RETRY ADDRESS
*
PPWVKWID DS    0CL4                SAVE AREA ID
PPWIDVKW EQU   C'VKW '             EQUATE FOR EYECATCHER
PPWVKWSA DS    9D                  SAVE AREA FOR IEFCNVKW LEVEL
PPWVKWDB DS    0D                  DEBUGGING STUFF
PPWVKWCN DS    F                   COUNT OF TIMES ENTERED
PPWVKWRT DS    A                   RETRY ADDRESS
*
PPWVPDID DS    0CL4                SAVE AREA ID
PPWIDVPD EQU   C'VPD '             EQUATE FOR EYECATCHER
PPWVPDSA DS    9D                  SAVE AREA FOR IEFCNVPD LEVEL
PPWVPDDB DS    0D                  DEBUGGING STUFF
PPWVPDCN DS    F                   COUNT OF TIMES ENTERED
PPWVPDRT DS    A                   RETRY ADDRESS
*
PPWVPSID DS    0CL4                SAVE AREA ID
PPWIDVPS EQU   C'VPS '             EQUATE FOR EYECATCHER
PPWVPSSA DS    9D                  SAVE AREA FOR POST SCAN EXIT LEVEL
PPWVPSDB DS    0D                  DEBUGGING STUFF
PPWVPSCN DS    F                   COUNT OF TIMES ENTERED
PPWVPSRT DS    A                   RETRY ADDRESS
*
PPWVCLID DS    0CL4                SAVE AREA ID
PPWIDVCL EQU   C'VCL '             EQUATE FOR EYECATCHER
PPWVCLSA DS    9D                  SAVE AREA FOR IEFCNVCL LEVEL
PPWVCLDB DS    0D                  DEBUGGING STUFF
PPWVCLCN DS    F                   COUNT OF TIMES ENTERED
PPWVCLRT DS    A                   RETRY ADDRESS
*
PPWVMSID DS    0CL4                SAVE AREA ID
PPWIDVMS EQU   C'VMS '             EQUATE FOR EYECATCHER
PPWVMSSA DS    9D                  SAVE AREA FOR IEFCNVMS LEVEL
PPWVMSDB DS    0D                  DEBUGGING STUFF
PPWVMSCN DS    F                   COUNT OF TIMES ENTERED
PPWVMSRT DS    A                   RETRY ADDRESS
*
PPWVDEID DS    0CL4                SAVE AREA ID
PPWIDVDE EQU   C'VDE '             EQUATE FOR EYECATCHER
PPWVDESA DS    9D                  SAVE AREA FOR IEFCNVDE LEVEL
PPWVDEDB DS    0D                  DEBUGGING STUFF
PPWVDECN DS    F                   COUNT OF TIMES ENTERED
PPWVDERT DS    A                   RETRY ADDRESS
*
PPWDOUBL DS    D                   DOUBLE WORD WORK AREA
*
PPWWORKA DS    A                   ADDRESS OF THIS WORK AREA
PPWWORKL DS    F                   LENGTH OF THIS WORK AREA
*
PPWTCBAD DS    A                   CONVERTER TCB ADDRESS
PPWTIOTA DS    A                   ADDRESS OF TIOT
*
PPWFSAAD DS    A                   FIRST SAVE AREA ADDRESS
PPWFSAR2 DS    F                   SAVED CONTENTS OF FSA REG 2
PPWFSAR3 DS    F                   SAVED CONTENTS OF FSA REG 3
*
PPWINTR1 DS    A                   ORIGINAL CONVERTER PARM LIST
PPWINTRC DS    F                   CONVERTER RETURN CODE
*
PPWGSTR1 DS    A                   REGISTER 1 AT ENTRY TO IEFCNGST
PPWGSTRC DS    F                   RETURN CODE FROM IEFCNGST
PPWGSTCN DS    F                   COUNT OF CALLS TO IEFCNGST
*
PPWIMMCN DS    F                   COUNT OF CALLS TO IEFCNIMM
*
PPWPARMS DS    0A                  CONVERTER PARAMETER LIST
PPWPARM1 DS    0A                  FIRST CONVERTER PARAMETER
PPWCNVWA DS    A                   ADDRESS OF THE CONVERTER WORK AREA
PPWPARM2 DS    A                   SECOND CONVERTER PARAMETER
PPWPARM3 DS    A                   THIRD CONVERTER PARAMETER
PPWPARM4 DS    A                   FOURTH CONVERTER PARAMETER
PPWPARM5 DS    A                   FIFTH CONVERTER PARAMETER
PPWPARM6 DS    A                   SIXTH CONVERTER PARAMETER
*
PPWCNVRC DS    A                   UNUSED
PPWJSDCB DS    A                   ADDRESS OF DCB ADDR IN CNV WORK AREA
PPWCNNUM DS    A                   ADDRESS OF STATEMENT NUMBER IN CWA
*
PPWPSER1 DS    A                   REGISTER 1 FROM POST SCAN EXIT
*
PPWPSEPM DS    0A                  POST SCAN EXIT PARM LIST
PPWPSETX DS    A                   ADDRESS OF INTERNAL TEXT RECORD
PPWPSECM DS    A                   COPY OF CNMB ANCHOR WORD
PPWPSEWK DS    A                   ADDRESS OF INTERNAL TEXT WORK AREA
PPWPSEPL EQU   *-PPWPSEPM          LENGTH OF POST SCAN EXIT
*
PPWCNDCB DS    A                   ORIGINAL CONVERTER DCB ADDRESS
PPWPPDCB DS    A                   ADDRESS OF OUR PROCLIB DCB
PPWPMDCB DS    A                   ADDRESS OF DCB IN CONVERTER PARMLIST
*
PPWCNTXT DS    A                   ORIGINAL CONVERTER TXT EXIT
PPWPPTXT DS    A                   ADDRESS OF OUR CONVERTER TXT EXIT
PPWPMTXT DS    A                   ADDRESS OF TXT EXIT IN CNV PARM LIST
*
PPWEXLST DS    XL(CNPREXLN)        COPY OF ORIGINAL EXIT LIST
PPWPPLST DS    XL(CNPREXLN)        OUR REBUILT EXIT LIST
*
PPWJMR   DS    A                   ADDRESS OF THE JMR
*
PPWCNVDE DS    A                   ADDRESS OF DYNALLOC ERROR ROUTINE
PPWCNVKW DS    A                   ADDRESS OF KEYWORD SCAN ROUTINE
PPWCNVPD DS    A                   ADDRESS OF PARAMETER DELETE ROUTINE
PPWCNVMS DS    A                   ADDRESS OF MESSAGE ROUTINE
PPWCNVXT DS    A                   ADDRESS OF DATA EXTRACT/UPDATE RTN
PPWCNVOP DS    A                   ADDRESS OF OPTIONS DATA
*
PPWDBGST DS    0F                  START OF DEBUGGING SAVED DATA
*
PPWENVIR DS    X'00'               ENVIRONMENTAL FLAGS
PPWEJOB  EQU   X'80'               BATCH JOB
PPWETSU  EQU   X'40'               TIME SHARING USER
PPWESTC  EQU   X'20'               STARTED TASK
PPWEMSTR EQU   X'02'               THIS IS THE MASTER SCHEDULAR
PPWEESA4 EQU   X'01'               ESA V4 BCP IN USE
*
PPWOPTN1 DS    X'00'               OPTION FLAGS 1
PPWO1STC EQU   X'80'               STC JCLLIB KEYWORD AVAILABLE
PPWO1JPR EQU   X'40'               JOBPROC DDNAME AVAILABLE
PPWO1DBG EQU   X'20'               DEBUGGING CODE IN EFFECT
PPWO1JLV EQU   X'10'               ALTER THE JES LEVEL IF NECESSARY
PPWO1SWA EQU   X'08'               SUPPORT THE SWA KEYWORD ON JOB CARD
PPWO1SDD EQU   X'04'               SUPPORT THE SWAABOVE/BELOW DDNAMES
PPWO1MSP EQU   X'02'               MESSAGE SUPPRESSION WANTED
*
PPWSPRDF DS    X'00'               SYSPROC DEFAULTS
PPWSPRJY EQU   X'80'               BATCH JOB SYSPROC=YES
PPWSPRJF EQU   X'40'               BATCH JOB SYSPROC=FIRST
PPWSPRTY EQU   X'20'               TSO USER SYSPROC=YES
PPWSPRTF EQU   X'10'               TSO USER SYSPROC=FIRST
PPWSPRSY EQU   X'08'               STARTED TASK SYSPROC=YES
PPWSPRSF EQU   X'04'               STARTED TASK SYSPROC=FIRST
*
PPWVPPFL DS    X'00'               STATUS FLAGS FOR IEFCNVPP
PPWVPPEX EQU   X'80'               IEFCNVPP IS EXECUTING
*
PPWVGSFL DS    X'00'               STATUS FLAGS FOR IEFCNVGS
PPWVGSEX EQU   X'80'               IEFCNVGS IS EXECUTING
*
PPWVXTFL DS    X'00'               STATUS FLAGS FOR IEFCNVXT
PPWVXTEX EQU   X'80'               IEFCNVXT IS EXECUTING
PPWVXTGW EQU   X'40'               GWA EXTRACT IN PROGRESS
PPWVXTST EQU   X'20'               STM EXTRACT IN PROGRESS
PPWVXTSU EQU   X'10'               STM UPDATE IN PROGRESS
PPWVXTMS EQU   X'08'               ISSUE CONVERTER MESSAGE
*
PPWVJPFL DS    X'00'               STATUS FLAGS FOR IEFCNVJP
PPWVJPEX EQU   X'80'               IEFCNVJP IS EXECUTING
PPWVJPAL EQU   X'40'               PERFORMING DYNAMIC ALLOCATION
*
PPWVEXFL DS    X'00'               STATUS FLAGS FOR IEFCNVEX
PPWVEXEX EQU   X'80'               IEFCNVEX IS EXECUTING
PPWVEXAL EQU   X'40'               PERFORMING DYNAMIC ALLOCATION
PPWVEXCO EQU   X'20'               PERFORMING DYNAMIC CONCATENATION
PPWVEXOP EQU   X'10'               OUR PROCLIB OPEN IN PROGRESS
*
PPWVKWFL DS    X'00'               STATUS FLAGS FOR IEFCNVKW
PPWVKWEX EQU   X'80'               IEFCNVKW IS EXECUTING
*
PPWVPDFL DS    X'00'               STATUS FLAGS FOR IEFCNVPD
PPWVPDEX EQU   X'80'               IEFCNVPD IS EXECUTING
*
PPWVCLFL DS    X'00'               STATUS FLAGS FOR IEFCNVCL
PPWVCLEX EQU   X'80'               IEFCNVCL IS EXECUTING
PPWVCLCL EQU   X'40'               PROCLIB IS BEING CLOSED
PPWVCLDC EQU   X'20'               PROCLIB IS DECONCATENATING
PPWVCLDA EQU   X'10'               PROCLIB IS DEALLOCATING
*
PPWVDEFL DS    X'00'               STATUS FLAGS FOR IEFCNVDE
PPWVDEEX EQU   X'80'               IEFCNVDE IS EXECUTING
PPWVDEDF EQU   X'40'               DAIRFAIL HAS BEEN CALLED
*
PPWVPSFL DS    X'00'               STATUS FLAGS FOR IEFCNVPS
PPWVPSEX EQU   X'80'               IEFCNVPS IS EXECUTING
PPWVPSAD EQU   X'40'               PASSED TO POST SCAN EXIT VIA ADDRESS
PPWVPSLK EQU   X'20'               PASSED TO POST SCAN EXIT VIA LINK
*
PPWVMSFL DS    X'00'               STATUS FLAGS FOR IEFCNVMS
PPWVMSEX EQU   X'80'               IEFCNVMS IS EXECUTING
PPWVMSMB EQU   X'40'               BUILDING A MESSAGE
PPWVMSIM EQU   X'20'               CALL TO IEFCNIMM BEING MADE
PPWVMSWT EQU   X'10'               WTO IN PROGRESS
*
PPWVSTFL DS    X'00'               STATUS FLAGS FOR IEFCNVST
PPWVSTEX EQU   X'80'               IEFCNVST IS EXECUTING
PPWVSTRC EQU   X'40'               RECURSIVE ABEND FLAG
PPWVSTDM EQU   X'20'               SVC DUMP IN PROGRESS
PPWVSTRE EQU   X'10'               RETRY REQUESTED FOR RECOVERY
*
PPWCFLG1 DS    X'00'               STATUS FLAGS FOR CONVERTER EXECUTION
PPWC1INT EQU   X'80'               CONTROL PASSED TO IEFCNINT
PPWC1GST EQU   X'40'               CONTROL PASSED TO IEFCNGST
PPWC1IMM EQU   X'20'               CONTROL PASSED TO IEFCNIMM
*
PPWFLAG1 DS    X'00'               STATUS FLAGS 1
PPW1JPER EQU   X'80'               ERROR NOTED IN JOBPROC STATEMENT
PPW1HVJP EQU   X'40'               JOBPROC DD CARD IS PRESENT
PPW1CNJP EQU   X'20'               JOBPROC IS A CONCATENATION
PPW1OPEN EQU   X'10'               USER PROCLIB DCB IS OPEN
PPW1JPCN EQU   X'08'               JOBPROC IS NOW CONCATENATED
PPW1NULL EQU   X'04'               NULL STATEMENT DETECTED
*
PPWFLAG2 DS    X'00'               STATUS FLAGS 2
PPW2JCLB EQU   X'80'               JCLLIB STATEMENT ENCOUNTERED
PPW2JBPR EQU   X'40'               JOBPROC DD DETECTED FROM IEFCNGST
PPW2JBPC EQU   X'20'               JOBPROC CONCAT DETECTED FROM GST
PPW2NJBP EQU   X'10'               NO LONGER NEED TO SCAN IN GST
PPW2CMPL EQU   X'08'               FIRST EXEC PROCESSING COMPLETE
PPW2TRCE EQU   X'04'               TRACING IS IN EFFECT
PPW2MSGL EQU   X'02'               MSGLEVEL ALTERED
PPW2PSEI EQU   X'01'               POST SCAN EXIT INTERCEPT
*
PPWFLAG3 DS    X'00'               STATUS FLAGS 3
PPW3DSNL EQU   X'80'               DSN INCL/EXCL LIST MODULE LOADED
PPW3ESTA EQU   X'40'               ESTAE HAS BEEN ISSUED
PPW3NOSY EQU   X'20'               SYSPROC UNAVAILABLE
PPW3SPV4 EQU   X'10'               SP V4 FORMAT CONVERTER PARMS
PPW3CNMB EQU   X'04'               CNMB ADDRESS AVAILABLE
PPW3DALC EQU   X'02'               CONTROL PASSED TO SVC 99
PPW3INIT EQU   X'01'               INITIALIZATION IS COMPLETE
*
PPWFLAG4 DS    X'00'               STATUS FLAGS 4
PPW4SYSP EQU   X'80'               SYSPROC=YES SPECIFIED OR DEFAULTED
PPW4SYSF EQU   X'40'               SYSPROC=FIRST SPECIFIED OR DEFAULTED
PPW4SWAA EQU   X'20'               SWA=ABOVE SPECIFIED ON JOB CARD
PPW4SWAB EQU   X'10'               SWA=BELOW SPECIFIED ON JOB CARD
*
PPWSTMT1 DS    X'00'               JOBPROC DD STATEMENT FLAGS
PPWS1DSN EQU   X'80'               DSNAME PROVIDED
PPWS1SPR EQU   X'40'               SYSPROC PROVIDED
*
PPWMSGLV DS    X                   SAVED MESSAGE LEVEL FROM JCT
*
PPWJPCNT DS    H                   NO. OF JOBPROC DD STATEMENTS
PPWJPSYS DS    H                   NO. OF SYSTEM PROCLIBS
PPWJPMAX DS    H                   MAXIMUM USER PROCLIBS ALLOWED
*
PPWDBGND DS    0F                  END OF DEBUGGING SAVED DATA
PPWDBGLN EQU   PPWDBGND-PPWDBGST   LENGTH OF DEBUGGING AREA
*
PPWSYSDS DS    16A                 ADDRESS OF SYSPROC JFCBS
*
PPWDDBSE DS    CL8                 BASE DDNAME FOR ALL ALLOCATIONS
*
PPWDDSUF DS    CL16                DDNAME SUFFIX CHARACTERS
PPWHEXTR EQU   PPWDDSUF-240        CONVENIENT HEX TRANSLATE TABLE
*
PPWSWRPL DS    2A                  SWAREQ PARAMETER POINTERS
PPWSWREA DS    A                   SWAREQ PARAMETER LIST
PPWSWREP DS    CL(L'SWAEPAX)       SWAREQ EPA
*
PPWSYSDD DS    CL8                 NAME OF SYSTEM PROCLIB DD
*
         PUSH  PRINT
         PRINT NOGEN
PPWDCB   DCB   DDNAME=PTTTTTT0,DSORG=PO,MACRF=(R)
         POP   PRINT
PPWDCBL  EQU   *-PPWDCB            LENGTH OF DCB AREA
*
PPWDARGL DS    A                   DYN ALLOC ARG LIST
PPWDARB  DS    0XL20'0',5F'0'      DYN ALLOC REQUEST BLOCK
PPWDARC  DS    F                   DYN ALLOC RETURN CODE
*
PPWDATXT DS    10A                 DYN ALLOC TEXT POINTERS
*
PPWDDNMK DS    H                   DDNAME KEY FOR DYN ALLOC/DE-ALLOC
PPWDDNM# DS    H                         NO. OF LENGTH-PARM ITEMS:
PPWDDNML DS    H                         DDNAME LENGTH
PPWDDNME DS    CL8                       USER PROCLIB DDNAME
*
PPWRTDSK DS    H                   RETURN DSORG KEY FOR DYN ALLOC
PPWRTDS# DS    H                         NO. OF LENGTH-PARM ITEMS:
PPWRTDSL DS    H                         DSORG LENGTH
PPWRTDSE DS    XL2                       DSORG RETURNED
*
PPWDSNMK DS    H                   DSNAME KEY FOR DYN ALLOC
PPWDSNM# DS    H                         NO. OF LENGTH-PARM ITEMS:
PPWDSNML DS    H                         DSNAME LENGTH
PPWDSNME DS    CL44                      USER PROCLIB DSNAME
*
PPWDISPK DS    H                   STATUS DISPOSITION KEY
PPWDISP# DS    H                         NO. OF LENGTH-PARM ITEMS
PPWDISPL DS    H                         DISPOSITION CODE LENGTH
PPWDISP  DS    X                         DISP CODE
*
PPWCLOSK DS    H                   FREE=CLOSE KEY FOR DYN DEALLOC
PPWCLOS# DS    H                         NO. OF LENGTH-PARM ITEMS:
*
PPWCONCK DS    H                   DDNAME KEY FOR CONCATENATIONS
PPWCONC# DS    H                         NUMBER OF LENGTH-PARM ITEMS:
PPWCONCM EQU   16                        MAX NUMBER OF CONCATENATIONS
PPWCONCD DS    (PPWCONCM)XL10            DDNAME LENGTH AND TEXT
         DS    CL(L'PPWCONCD)      PADDING FOR SHIFTING
*
PPWDFPRM DS    5F                  DAIRFAIL PARM LIST
PPWDFRCD DS    F                   DAIRFAIL RETURN CODE
PPWDFIDN DS    H                   DAIRFAIL CALLER IDENT.
*
PPWSTMLL DS    H                   STATEMENT LABEL LENGTH
PPWSTMLA DS    CL8                 STATEMENT LABEL/NAME
*
PPWSTMVC DS    H                   STATEMENT VERB CODE
PPWSTMVL DS    H                   STATEMENT VERB LENGTH
PPWSTMVR DS    CL8                 STATEMENT VERB
*
PPWSTMTX DS    A                   ADDRESS OF STATEMENT TEXT
PPWSTMTL DS    H                   LENGTH OF STATEMENT TEXT
*
PPWKYWDL DS    H                   LENGTH OF KEYWORD
PPWKYWDT DS    CL8                 KEYWORD VALUE
*
PPWJBPRL DS    H                   LENGTH OF JOBPROC DDNAME
PPWJBPRC DS    CL8                 JOBPROC DDNAME
*
PPWSTCKL DS    H                   LENGTH OF STC JCLLIB KEYWORD
PPWSTCKW DS    CL8                 STC JCLLIB KEYWORD
*
PPWSWAKL DS    H                   LENGTH OF SWA KEYWORD
PPWSWAKW DS    CL8                 SWA KEYWORD
*
PPWSWAAL DS    H                   LENGTH OF SWAABOVE DDNAME
PPWSWAAD DS    CL8                 SWAABOVE DDNAME
PPWSWABL DS    H                   LENGTH OF SWABELOW DDNAME
PPWSWABD DS    CL8                 SWABELOW DDNAME
*
PPWSYSPL DS    H                   LENGTH OF SYSPROC KEYWORD
PPWSYSPR DS    CL8                 SYSPROC KEYWORD
*
PPWMSGPL DS    H                   MESSAGE NUMBER PREFIX LENGTH
PPWMSGPF DS    CL8                 MESSAGE NUMBER PREFIX
*
PPWDSNLL DS    H                   LENGTH OF MODULE NAME (FOR MESSAGE)
PPWDSNLS DS    CL8                 DATA SET INCLUSION/EXCLUSION MODULE
PPWDSNAD DS    A                   ADDRESS OF DATA SET INCL/EXCL LISTS
*
         PUSH  PRINT
         PRINT NOGEN
PPWESTAE ESTAE *-*,TERM=YES,MF=L
         POP   PRINT
PPWESTAL EQU   *-PPWESTAE          AREA LENGTH
*
PPWOCLST OPEN  (PPWDCB,(INPUT)),MF=L
*
PPWCNMB  DS    A                   CHAIN OF CNMBS
*
PPWVMTAD DS    A                   ADDRESS OF MESSAGE TABLE ENTRY
*
PPWWTOMD WTO   '',ROUTCDE=1,DESC=6,MF=L MODEL WTO PARM LIST
PPWWTOML EQU   *-PPWWTOMD
*
         DS    0F
PPWTOWRK DS    CL144               WTO MESSAGE AREA
*
PPWMSGLN DS    H                   MESSAGE TEXT LENGTH (AFTER BUILDING)
PPWMSGTX DS    CL144               MESSAGE TEXT BUILD AREA
*
PPWMSGWL DS    H                   MESSAGE TEXT WORK LENGTH
PPWMSGWK DS    CL80                MESSAGE TEXT WORK AREA
*
PPWKEYWL DS    H                   KEYWORD DATA LENGTH
PPWKEYWD DS    CL80                KEYWORD DATA AREA
*
         DS    0D
PPWGENWK DS    XL256               GENERAL WORK AREA
*
         DS    0D                  ALIGN TO A DOUBLE WORD
PPWORKLN EQU   *-PPWDSECT          WORK AREA LENGTH
*
PPABEND  EQU   X'BAD'              INTERNAL ABEND CODE
*
         MEND
