         MACRO
&NAME    IEFCNFSA
         TITLE 'CONVERTER SUBTASK FIRST SAVE AREA MAPPING'
***********************************************************************
*                                                                     *
*        THIS IS A MAPPING OF THE FIRST SAVE AREA OF THE              *
*        CONVERTER SUBTASK (POINTED TO BY TCBFSA).                    *
*                                                                     *
***********************************************************************
*
FSADSECT DSECT
FSAWORD1 DS    F                   FIRST WORD OF SAVE AREA
FSABACKP DS    A                   BACKWARD SAVE AREA POINTER
FSAFORWP DS    A                   FORWARD SAVE AREA POINTER
FSAREG14 DS    A                   SAVE AREA FOR REGISTER 14
FSAREG15 DS    A                   SAVE AREA FOR REGISTER 15
FSAREG0  DS    A                   SAVE AREA FOR REGISTER 0
FSAREG1  DS    A                   SAVE AREA FOR REGISTER 1
FSAREG2  DS    0A                  SAVE AREA FOR REGISTER 2
FSAPPEYE DS    CL4                 DYNAMIC PROCLIB EYECATCHER
FSAPPEID EQU   C'JPRC'             DYNAMIC PROCLIB EYECATCHER VALUE
FSAREG3  DS    0A                  SAVE AREA FOR REGISTER 3
FSAPPWAD DS    A                   ADDRESS OF DYNAMIC PROCLIB WORK AREA
FSAREG4  DS    A                   SAVE AREA FOR REGISTER 4
FSAREG5  DS    A                   SAVE AREA FOR REGISTER 5
FSAREG6  DS    A                   SAVE AREA FOR REGISTER 6
FSAREG7  DS    A                   SAVE AREA FOR REGISTER 7
FSAREG8  DS    A                   SAVE AREA FOR REGISTER 8
FSAREG9  DS    A                   SAVE AREA FOR REGISTER 9
FSAREG10 DS    A                   SAVE AREA FOR REGISTER 10
FSAREG11 DS    A                   SAVE AREA FOR REGISTER 11
FSAREG12 DS    A                   SAVE AREA FOR REGISTER 12
*
         MEND
