         MACRO
&NAME    IEFCNOPT &DSECT=NO,                                           X
               &DDNAME=JOBPROC,                                        X
               &STCPARM=JCLLIB,                                        X
               &SWAPARM=SWA,                                           X
               &SWADDS=(SWAABOVE,SWABELOW),                            X
               &SYSPROC=SYSPROC,                                       X
               &SYSPJOB=YES,                                           X
               &SYSPSTC=NO,                                            X
               &SYSPTSU=NO,                                            X
               &MSGPRFX=CCC,                                           X
               &DSNLIST=IEFCNVLS,                                      X
               &DEBUG=NO,                                              X
               &MSGSUPP=YES,                                           X
               &JESLVL=YES
.*
         LCLC  &P
.*
         AIF   ('&DSECT' EQ 'YES').DSECT
.*
&P       SETC  'VOP'
***********************************************************************
*                                                                     *
*        IEFCNVOP                                                     *
*        ********                                                     *
*                                                                     *
*        THIS SECTION CONTAINS ALL OF THE OPTIONS THAT ARE VARIABLE   *
*        IN THIS PROGRAM.  THESE ARE USED BY OTHER PARTS OF THIS      *
*        PROGRAM.  HENCE, ONLY THIS SECTION NEED BE ALTERED TO        *
*        CHANGE ANY OF THEM.                                          *
*                                                                     *
***********************************************************************
*
IEFCNVOP CSECT
IEFCNVOP AMODE 31
IEFCNVOP RMODE ANY
*
         EJECT
         AGO   .GEN
.*
.DSECT   ANOP
&P       SETC  'OPT'
         TITLE 'MAPPING OF PROGRAM OPTIONS'
***********************************************************************
*                                                                     *
*        THIS DSECT MAPS ALL OF THE OPTIONS THAT ARE VARIABLE         *
*        IN THIS PROGRAM.  THESE ARE USED BY OTHER PARTS OF THIS      *
*        PROGRAM.  HENCE, ONLY THIS SECTION NEED BE ALTERED TO        *
*        CHANGE ANY OF THEM.                                          *
*                                                                     *
***********************************************************************
*
OPTDSECT DSECT
*
         AGO   .GEN
.*
.GEN     ANOP
         AIF   ('&DSECT' EQ 'YES').NJPRC1
***********************************************************************
*                                                                     *
*        JOBPROC DD NAME                                              *
*                                                                     *
*        THIS PARAMETER SHOULD BE SET TO THE DDNAME THAT IS DESIRED   *
*        TO BE USED FOR THE DYNAMIC PROCLIB DD STATEMENT.  THIS DD    *
*        NAME SHOULD NOT BE USED FOR ANY OTHER PURPOSE IN JCL AND     *
*        MAY CAUSE A JCL ERROR (MISPLACED DD STATEMENT) IF IT IS.     *
*                                                                     *
***********************************************************************
*
.NJPRC1  ANOP
&P.JBPRC DC    CL8'&DDNAME. '      JOBPROC DD NAME
*
         AIF   ('&DSECT' EQ 'YES').NSTCP1
***********************************************************************
*                                                                     *
*        START COMMAND KEYWORD PARAMETER FOR STC DYNAMIC PROCLIB      *
*                                                                     *
*        THIS PARAMETER SHOULD BE SET TO THE PARAMETER THAT IS        *
*        TO BE USED TO SPECIFY THE DYNAMIC PROCLIB DATA SET FOR       *
*        A STARTED TASK.  THIS KEYWORD MUST NOT BE EQUAL TO ANY       *
*        EXISTING JCL KEYWORDS AND CANNOT BE USED AS A SYMBOLIC       *
*        PARAMETER ON STARTED TASKS.                                  *
*                                                                     *
***********************************************************************
*
.NSTCP1  ANOP
&P.STCKW DC    CL8'&STCPARM. '     STARTED TASK PROCLIB KEYWORD PARM
*
         AIF   ('&DSECT' EQ 'YES').NSWAP1
         EJECT
***********************************************************************
*                                                                     *
*        SWA KEYWORD PARAMETER ON THE JOB STATEMENT                   *
*                                                                     *
*        THIS PARAMETER SHOULD BE SET TO THE PARAMETER THAT IS        *
*        TO BE USED TO SPECIFY THE LOCATION OF THE SCHEDULAR WORK     *
*        AREA FOR A JOB.  THIS KEYWORD MUST NOT BE EQUAL TO ANY       *
*        EXISTING JOB KEYWORDS.                                       *
*                                                                     *
***********************************************************************
*
.NSWAP1  ANOP
&P.SWAKW DC    CL8'&SWAPARM. '     SWA JOB CARD KEYWORD PARAMETER
*
         AIF   ('&DSECT' EQ 'YES').NSWAD1
***********************************************************************
*                                                                     *
*        SWA DD STATEMENT DDNAMES                                     *
*                                                                     *
*        THIS PARAMETER SHOULD BE SET TO THE TWO SPECIAL DDNAMES      *
*        THAT INDICATE THAT THE DEFAULT SWA LOCATION SHOULD BE        *
*        ALTERED.                                                     *
*                                                                     *
***********************************************************************
*
.NSWAD1  ANOP
&P.DDSWA DC    CL8'&SWADDS(1). '   SWA ABOVE DDNAME
*
&P.DDSWB DC    CL8'&SWADDS(2). '   SWA BELOW DDNAME
*
         AIF   ('&DSECT' EQ 'YES').NSYSP1
         EJECT
***********************************************************************
*                                                                     *
*        SYSPROC KEYWORD VALUE                                        *
*                                                                     *
*        THIS PARAMETER SHOULD BE SET TO THE VALUE THAT IS BEING      *
*        USED FOR THE SYSPROC KEYWORD.                                *
*                                                                     *
***********************************************************************
*
.NSYSP1  ANOP
&P.SYSPR DC    CL8'&SYSPROC. '     SYSPROC KEYWORD
*
         AIF   ('&DSECT' EQ 'YES').NSYSPJ1
***********************************************************************
*                                                                     *
*        SYSPROC = YES|NO|FIRST DEFAULT FOR BATCH JOBS                *
*                                                                     *
*        THIS PARAMETER SHOULD BE SET TO 'YES' TO MAKE SYSPROC=YES    *
*        THE DEFAULT OR 'NO' TO MAKE SYSPROC=NO THE DEFAULT.          *
*                                                                     *
***********************************************************************
*
.NSYSPJ1 ANOP
&P.SPRJB DC    CL8'&SYSPJOB. '     SYSPROC=YES|NO|FIRST
*
         AIF   ('&DSECT' EQ 'YES').NSYSPJ2
***********************************************************************
*                                                                     *
*        SYSPROC = YES|NO|FIRST DEFAULT FOR STARTED TASKS             *
*                                                                     *
*        THIS PARAMETER SHOULD BE SET TO 'YES' TO MAKE SYSPROC=YES    *
*        THE DEFAULT OR 'NO' TO MAKE SYSPROC=NO THE DEFAULT.          *
*                                                                     *
***********************************************************************
*
.NSYSPJ2 ANOP
&P.SPRST DC    CL8'&SYSPSTC. '     SYSPROC=YES|NO|FIRST
*
         AIF   ('&DSECT' EQ 'YES').NSYSPJ3
***********************************************************************
*                                                                     *
*        SYSPROC = YES|NO|FIRST DEFAULT FOR TSO USERS                 *
*                                                                     *
*        THIS PARAMETER SHOULD BE SET TO 'YES' TO MAKE SYSPROC=YES    *
*        THE DEFAULT OR 'NO' TO MAKE SYSPROC=NO THE DEFAULT.          *
*                                                                     *
***********************************************************************
*
.NSYSPJ3 ANOP
&P.SPRTS DC    CL8'&SYSPTSU. '     SYSPROC=YES|NO|FIRST
*
         AIF   ('&DSECT' EQ 'YES').NMSG1
         EJECT
***********************************************************************
*                                                                     *
*        MESSAGE PREFIX                                               *
*                                                                     *
*        THIS PARAMETER SHOULD BE SET TO THE PREFIX WHICH             *
*        IS DESIRED ON ALL MESSAGES ISSUED BY THIS PROGRAM.           *
*                                                                     *
*        THE MESSAGE NUMBERS WILL BE XXX800I THROUGH XXX899I,         *
*        WHERE XXX IS THE SELECTED PREFIX.                            *
*                                                                     *
***********************************************************************
*
.NMSG1   ANOP
&P.MSGPF DC    CL8'&MSGPRFX. '     MESSAGE PREFIX
*
         AIF   ('&DSECT' EQ 'YES').NMSGS1
***********************************************************************
*                                                                     *
*        MESSAGE SUPPRESSION OPTION                                   *
*                                                                     *
*        THIS PARAMETER CAUSES THE MSGLEVEL OF THE ADDRESS SPACE      *
*        RUNNING THE CONVERTER TO BE SET TO ZERO, SUPPRESSING THE     *
*        PROCLIB ALLOCATION/DEALLOCATION MESSAGES (IEF237I/IEF285I)   *
*        ISSUED AS AN IEF196I MESSAGE.                                *
*                                                                     *
***********************************************************************
*
.NMSGS1  ANOP
&P.MSGSP DC    CL8'&MSGSUPP. '     MESSAGE SUPPRESSION
*
         AIF   ('&DSECT' EQ 'YES').NDSNL1
***********************************************************************
*                                                                     *
*        DATA SET INCLUSION/EXCLUSION MODULE NAME                     *
*                                                                     *
*        THIS PARAMETER SHOULD BE SET TO THE NAME OF THE LOAD         *
*        MODULE THAT CONTAINS THE LIST OF DATA SETS THAT ARE          *
*        ELIGIBLE AND/OR NOT ELIGIBLE FOR DYNAMIC PROCLIB             *
*        PROCESSING.                                                  *
*                                                                     *
***********************************************************************
*
.NDSNL1  ANOP
&P.DSNLS DC    CL8'&DSNLIST. '     INCLUSION/EXCLUSION MODULE NAME
*
         AIF   ('&DSECT' EQ 'YES').NDEBUG1
         EJECT
***********************************************************************
*                                                                     *
*        DEBUGGING OPTION                                             *
*                                                                     *
*        THIS PARAMETER SHOULD BE SET TO EITHER YES OR NO TO ENABLE   *
*        OR DISABLE THE DEBUGGING TRACE CODE IN THIS MODULE.          *
*                                                                     *
***********************************************************************
*
.NDEBUG1 ANOP
&P.DEBUG DC    CL8'&DEBUG. '       DEBUGGING CODE
*
         AIF   ('&DSECT' EQ 'YES').NJES1
***********************************************************************
*                                                                     *
*        JES LEVEL OPTION                                             *
*                                                                     *
*        THIS PARAMETER CAUSES THE CONVERTER JES LEVEL FIELD TO       *
*        BE ALTERED, SO THAT THE CONVERTER THINKS IT IS RUNNING       *
*        UNDER A VERSION 4 LEVEL OF JES.                              *
*                                                                     *
***********************************************************************
*
.NJES1   ANOP
&P.JESLV DC    CL8'&JESLVL. '      ALTER THE JES LEVEL
*
         MEND
