         MACRO
&NAME    LDROP &W1,&W2
         GBLB  &LUSED
         GBLC  &USENM(50),&USEW(25)
         LCLA  &A,&B,&C,&D,&E
         LCLB  &F
         LCLC  &X1,&X2
         AIF   ('&NAME' EQ '').NONAME
&NAME    DS    0H .                     NAME DEFINED
.NONAME  AIF   (&LUSED).CNTU
         MNOTE 8,'USER ERROR - LUSE HAS NEVER BEEN USED'
         MEXIT
.CNTU    ANOP
&C       SETA  N'&SYSLIST
         AIF   (&C GT 0).OK1
         MNOTE 4,'NO OPERAND(S) ON LDROP, MACRO IGNORED'
         MEXIT
.OK1     AIF   ('&W1' EQ '*').DROPALL
&A       SETA  1
.LOOP    AIF   (&A GT &C).MEND
&X1      SETC  '&SYSLIST(&A)'
&B       SETA  1
&F       SETB  0
.LL1     AIF   ('&USEW(&B)' EQ '&X1').DROPIT
         AIF   ('&USEW(&B)' EQ '').LL1A
&B       SETA  &B+1
         AIF   (&B LE 25).LL1
.LL1A    AIF   (&F).GETNEXT
         MNOTE 8,'USER ERROR - &SYSLIST(&A) NOT LUSED'
.GETNEXT ANOP
&A       SETA  &A+1
         AGO   .LOOP
.DROPIT  ANOP
&D       SETA  (&B*2)-1
         MNOTE *,'&USEW(&B) WAS BASE FOR &USENM(&D)&USENM(&D+1)'
.*       CLEAN UP USEW ARRAY FIRST
&E       SETA  &B                       SET POINTER
.CL1     AIF   (&E EQ 25).NULLAST
&USEW(&E) SETC '&USEW(&E+1)'
&E       SETA  &E+1
         AIF   ('&USEW(&E)' EQ '').CL2
         AGO   .CL1
.NULLAST ANOP
&USEW(25) SETC ''
.*       NOW - THE HARD PART, CLEAN UP USENM
.CL2     AIF   (&D GE 49).NULBOTH
&USENM(&D) SETC '&USENM(&D+2)'
&USENM(&D+1) SETC '&USENM(&D+3)'
&D       SETA  &D+2
         AIF   ('&USENM(&D)' EQ '').GOTO
         AGO   .CL2
.NULBOTH ANOP
&USENM(49) SETC ''
&USENM(50) SETC ''
.GOTO    AIF   (&F).LL1                 TRY AGAIN
         DROP  &SYSLIST(&A) .           GEN DROP STMT
&F       SETB  1                        NO MULTI-DROPS
         AGO   .LL1                     CLEAN ANY REMAINING ENTRIES
.DROPALL MNOTE *,'ALL KNOWN BASE REGISTERS BEING DROPPED'
&B       SETA  1
.DD1     AIF   ('&USEW(&B)' EQ '').DDONE
         MNOTE *,'&USEW(&B) WAS BASE FOR &USENM(&B*2-1)&USENM(&B*2)'
&B       SETA  &B+1
&F       SETB  1
         AGO   .DD1
.DDONE   AIF   (&F).DDTWO
         MNOTE 4,'** NO REGISTERS IN USE TO BE LDROP''ED **'
         MEXIT
.DDTWO   ANOP
&A       SETA  1
.CLEAR   AIF   (&A GT 25).MEND
         AIF   ('&USEW(&A)' EQ '').NODRP
         DROP  &USEW(&A) .                  GENERATE DROP STMT
.NODRP   ANOP
&USEW(&A) SETC ''
&B       SETA  (&A*2)-1
&USENM(&B) SETC ''
&USENM(&B+1) SETC ''
&A       SETA  &A+1
         AGO   .CLEAR
.MEND    MEND
