         MACRO
&NAME    LUSE  &WHERE,&W1,&W2
         GBLB  &LUSED
         GBLC  &USENM(50),&USEW(25)
         LCLA  &A,&B,&C,&D,&E
         LCLC  &X1,&X2
         AIF   ('&NAME' EQ '').NONAME
&NAME    DS    0H .           DEFINE NAME
.NONAME  AIF   (N'&SYSLIST LE 15).OK1
         MNOTE 16,'OPERAND ERROR - TOO MANY OPERANDS, MACRO ABORTED'
         MEXIT
.OK1     AIF   (N'&SYSLIST LT 2).ERR
&A       SETA  1
&C       SETA  N'&SYSLIST
.OKX     AIF   ('&SYSLIST(&A)' NE '').INCR
         MNOTE 16,'OPERAND ERROR - NULL OPERAND'
         MEXIT
.INCR    AIF   (&A EQ &C).GEN
&A       SETA  &A+1
         AGO   .OKX
.GEN     AIF   (&C NE 2).RECURSE
&A       SETA  1
.FNULL   AIF   ('&USEW(&A)' EQ '').HNULL
&A       SETA  &A+1
         AIF   (&A LE 25).FNULL
         MNOTE 16,'LUSE USER ERROR - TOO MANY LUSE WITHOUT LDROP'
         MEXIT
.HNULL   ANOP
&D       SETA  (&A*2)-1
&E       SETA  K'&WHERE-8
&X1      SETC  '&WHERE'
         AIF   (&E LE 0).COMMON
         AIF   (&E LE 8).SETX2
&E       SETA  8
.SETX2   ANOP
&X2      SETC  '&WHERE'(9,&E)
.COMMON  ANOP
&USENM(&D)     SETC           '&X1'
&USENM(&D+1) SETC '&X2'
&USEW(&A) SETC '&W1'
&E       SETA  1
.MATCH   AIF   (&E GE &A).GENUSE
         AIF   ('&USEW(&E)' EQ '&USEW(&A)').MN0
&E       SETA  &E+1
         AGO   .MATCH
.MN0     MNOTE 0,'** WARNING **  REGISTER '
         MNOTE *,'&USEW(&E) PREVIOUSLY LUSED AS BASE FOR'
&D       SETA  (&E*2)-1
         MNOTE *,'&USENM(&D)&USENM(&D+1) - NEW USING CREATED'
&E       SETA  &E+1
         AGO   .MATCH
.GENUSE  USING &WHERE,&W1 .   GEN USING STMT
         AIF   (&LUSED).MEND
&LUSED   SETB  1
         SPACE 1
         MEXIT
.RECURSE ANOP
&B       SETA  2
.RCU     AIF   (&B GT &C).MEND
         LUSE  &WHERE&X1,&SYSLIST(&B)
&B       SETA  &B+1
&E       SETA  &E+4096
&X1      SETC  '+'.'&E'
         AGO   .RCU
.ERR     MNOTE 16,'OPERAND ERROR - NEED 2 OR MORE OPERANDS, MACRO EXIT'
.MEND    MEND
