         TITLE 'TLPRNT - PRINT TAPE LABELS A-LA TLPRINT BUT CALLABLE'
*--------------------------------------------------------------------*
*                                                                    *
*        TLPRNT  -  SUBSTITUTE TLPRINT - TAPE LABEL PRINT            *
*                                                                    *
* AUTHOR :  SAM GOLOB                                                *
*                                                                    *
* PURPOSE:  THIS PROGRAM IS LIKE THE TLPRINT LABEL PRINTING          *
*           SUBROUTINE THAT IS CALLED BY THE COPYFILE PROGRAM,       *
*           BUT IT IS CALLED ONE LABEL AT A TIME, INSTEAD OF ALL     *
*           AT ONCE, FROM THE END OF THE CALLING PROGRAM.            *
*                                                                    *
*           THIS ALLOWS COPYFILE TO PRINT LIMITLESS AMOUNTS OF       *
*           LABELS ON A TAPE.  YOU DO NOT HAVE TO GATHER ALL THE     *
*           LABELS READ, INTO A GETMAINED AREA.  YOU PRINT THEM      *
*           ONE AT A TIME, AS YOU READ THEM IN FROM THE INPUT        *
*           TAPE.                                                    *
*                                                                    *
*           ALSO, ASCII LABEL SUPPORT HAS BEEN ADDED.                *
*                                                                    *
* DIFFERENCES:   TO END THE LABEL PRINT, FEED A LABEL RECORD         *
*                WITH X'00' AS THE FIRST CHARACTER, INTO THE         *
*                LABELIN AREA, ADDRESSED BY REGISTER 1 UPON          *
*                ENTRY TO THIS PROGRAM.                              *
*                                                                    *
*--------------------------------------------------------------------*
         MACRO
&NAME    OUT   &LINE
&NAME    LA    R0,&LINE        R0 = ADDRESS OF LINE TO BE PRINTED
         BAL   R7,PRINT        LINK TO THE PRINT SUBROUTINE.
         MEND
         GBLC  &LLEV
&LLEV    SETC  '1.0 '
         YREGS
         ENTRY TLPRNT
TLPRNT   CSECT
         USING *,R15
         B     EYECATCH
         DC    C'--- '            MAKE EYECATCHER VISIBLE
         DC    C'TLPRNT - PRINT TAPE FILES IF THEY ARE LABELS'
         DC    C' - '
         DC    C'LEVEL '
SYSLEV   DC    C'&LLEV'
         DC    C' - '
SYSDAT   DC    C'&SYSDATE'
         DC    C'  ',C'&SYSTIME ',C'--- '
SAVEAREA DC    18F'0'
EYECATCH DS    0D                   ENSURE ALIGNMENT
         SAVE  (14,12)
         LR    R5,R1                SAVE REGISTER 1 INPUT TO PROGRAM
         LA    R1,SAVEAREA          NEW SAVE AREA ADDRESS
         ST    R1,8(,R13)           FORWARD SAVE AREA CHAIN PTR
         ST    R13,4(,R1)           BACKWARD SAVE AREA CHAIN PTR
         LR    R13,R1               NEW SAVE AREA ADDRESS
         DROP  R15
* -----                             SET UP BASE REGISTERS
         USING TLPRNT,R12,R11
         LR    R12,R15
         LA    R11,4095(,R12)
         LA    R11,1(,R11)
         LR    R1,R5                RESTORE REGISTER 1 INPUT
* ----------------------------------------------------------------- *
         ST    R1,PARMSAVE          Address of parm flags in caller
* ----------------------------------------------------------------- *
INITCONS DS    0H                   Initialize necessary quantities.
         TM    ENDFLAG,X'01'        Have we turned this program off?
         BO    THEEND               Yes. Just go to THEEND and get out.
         MVI   LINE-1,X'40'         Make sure the print line is blank.
         MVC   LINE,LINE-1
         MVC   LABELIN(80),0(R1)    Copy label input area to ours.
         LA    R3,LABELIN           Point R3 to the label input area.
         CLI   0(R3),X'00'          Test for last label.
         BE    LASTFILE             If so, close up and turn off pgm.
* ----------------------------------------------------------------- *
INITPCT  DS    0H
         TM    INITFLAG,X'01'       Have we been here before?
         BO    ENDINIT1             Yes. Don't do initialization again.
         OI    INITFLAG,X'01'       Only do once.
         MVC   TOTALPCT,=F'0'       Reset volume use percentage.
ENDINIT1 DS    0H
*-------------------------------------------------------------------*
*        COMPLETE THE HEADER.                                       *
*-------------------------------------------------------------------*
         TIME  DEC                  TIME PLEASE
         STM   0,1,WORK             SAVE IT ALL OFF
         MVC   DATE,=X'40202061202120'   MOVE IN EDIT PATTERN
         ED    DATE,WORK+5          EDIT THE DATE
         UNPK  TIME(3),WORK(2)      NOW WE
         MVI   TIME+2,C'.'               DO
         UNPK  TIME+3(3),WORK+1(2)         THE
         MVI   TIME+5,C' '                    TIME
* ----------------------------------------------------------------- *
WHATLBL  DS    0H                   Sort out all the label types....
*                                      First by EBCDIC and ASCII....
         CLC   LABELIN(4),=C'VOL1'
         BE    WHATLBLE
         CLC   LABELIN(4),=C'HDR1'
         BE    WHATLBLE
         CLC   LABELIN(4),=C'EOF1'
         BE    WHATLBLE
         CLC   LABELIN(4),=C'EOV1'
         BE    WHATLBLE
         CLC   LABELIN(4),=C'HDR2'
         BE    WHATLBLE
         CLC   LABELIN(4),=C'EOF2'
         BE    WHATLBLE
         CLC   LABELIN(4),=C'EOV2'
         BE    WHATLBLE
         CLC   LABELIN(3),=C'UHL'
         BE    WHATLBLE
         CLC   LABELIN(3),=C'UTL'
         BE    WHATLBLE
         CLC   LABELIN(4),=X'564F4C31'     ASCII VOL1
         BE    WHATLBLA
         CLC   LABELIN(4),=X'48445231'     ASCII HDR1
         BE    WHATLBLA
         CLC   LABELIN(4),=X'454F4631'     ASCII EOF1
         BE    WHATLBLA
         CLC   LABELIN(4),=X'454F5631'     ASCII EOV1
         BE    WHATLBLA
         CLC   LABELIN(4),=X'48445232'     ASCII HDR2
         BE    WHATLBLA
         CLC   LABELIN(4),=X'454F4632'     ASCII EOF2
         BE    WHATLBLA
         CLC   LABELIN(4),=X'454F5632'     ASCII EOV2
         BE    WHATLBLA
         CLC   LABELIN(3),=X'564F4C'       ASCII VOLx
         BE    WHATLBLA
         CLC   LABELIN(3),=X'484452'       ASCII HDRx
         BE    WHATLBLA
         CLC   LABELIN(3),=X'454F46'       ASCII EOFx
         BE    WHATLBLA
         CLC   LABELIN(3),=X'454F56'       ASCII EOVx
         BE    WHATLBLA
         CLC   LABELIN(3),=X'55564C'       ASCII UVLx
         BE    WHATLBLA
         CLC   LABELIN(3),=X'55484C'       ASCII UHLx
         BE    WHATLBLA
         CLC   LABELIN(3),=X'55544C'       ASCII UTLx
         BE    WHATLBLA
         B     NOPRTEXT                    Not a label format
*
WHATLBLE DS    0H                          EBCDIC (IBM) Labels
*                                          Go to appropriate routine
         CLC   LABELIN(4),=C'VOL1'
         BE    PXTVOL1
         CLC   LABELIN(4),=C'HDR1'
         BE    PXT1PRH
         CLC   LABELIN(4),=C'EOF1'
         BE    PXT1PRE
         CLC   LABELIN(4),=C'EOV1'
         BE    PXT1PRE
         CLC   LABELIN(4),=C'HDR2'
         BE    PXT2PRH
         CLC   LABELIN(4),=C'EOF2'
         BE    PXT2PRE
         CLC   LABELIN(4),=C'EOV2'
         BE    PXT2PRE
         CLC   LABELIN(3),=C'UHL'
         BE    PXTUSE
         CLC   LABELIN(3),=C'UTL'
         BE    PXTUSE
         B     NOPRTEXT                    Not a label format
* ----------------------------------------------------------------- *
WHATLBLA DS    0H                          ASCII  Labels
*
*        Common ASCII preparation routines......
*
* -- >  Make an EBCDIC version of this label in the LABELEBC field.
         MVC   LABELEBC(80),LABELIN    Move LABEL area to workarea
         TR    LABELEBC(80),TRTA2E     Translate to EBCDIC for print
         LA    R3,LABELEBC             Point to EBCDIC label version.
* -- >
*
*        ASCII preparations done......
*                                          Go to appropriate routine
*
* ----------------------------------------------------------------- *
         CLC   LABELIN(4),=X'564F4C31'     ASCII VOL1
         BE    PXTVOL1A
         CLC   LABELIN(4),=X'48445231'     ASCII HDR1
         BE    PXT1PRHA
         CLC   LABELIN(4),=X'454F4631'     ASCII EOF1
         BE    PXT1PREA
         CLC   LABELIN(4),=X'454F5631'     ASCII EOV1
         BE    PXT1PREA
         CLC   LABELIN(4),=X'48445232'     ASCII HDR2
         BE    PXT2PRHA
         CLC   LABELIN(4),=X'454F4632'     ASCII EOF2
         BE    PXT2PREA
         CLC   LABELIN(4),=X'454F5632'     ASCII EOV2
         BE    PXT2PREA
         CLC   LABELIN(3),=X'564F4C'       ASCII VOLx
         BE    PXTUSEA
         CLC   LABELIN(3),=X'484452'       ASCII HDRx
         BE    PXTUSEA
         CLC   LABELIN(3),=X'454F46'       ASCII EOFx
         BE    PXTUSEA
         CLC   LABELIN(3),=X'454F56'       ASCII EOVx
         BE    PXTUSEA
         CLC   LABELIN(3),=X'55564C'       ASCII UVLx
         BE    PXTUSEA
         CLC   LABELIN(3),=X'55484C'       ASCII UHLx
         BE    PXTUSEA
         CLC   LABELIN(3),=X'55544C'       ASCII UTLx
         BE    PXTUSEA
         B     NOPRTEXT                    Not a label format
* ----------------------------------------------------------------- *
PXTVOL1  DS    0H
         MVC   SERIAL,4(R3)         Copy volume serial number.
         MVC   OWNER(10),41(R3)     Copy 10 character EBCDIC owner id.
* ----------------------------------------------------------------- *
         TM    INITFLAG,X'02'       Have we been here before?
         BO    ENDINIT2             Yes. Don't do initialization again.
         OI    INITFLAG,X'02'
         PUT   OUTTL,HEADER
         LA    R6,0                 Reset file count for a new page.
         ST    R6,CURCOUNT          And store it so next call knows.
ENDINIT2 DS    0H
         B     NOPRTEXT             Return to caller.
* ---------------------- *
PXTVOL1A DS    0H
         MVC   SERIAL,4(R3)         Copy volume serial number.
         MVC   OWNER(14),37(R3)     Copy 14 character ASCII owner id.
* ----------------------------------------------------------------- *
         TM    INITFLAG,X'02'       Have we been here before?
         BO    ENDINIT3             Yes. Don't do initialization again.
         OI    INITFLAG,X'02'
         PUT   OUTTL,HEADER
         LA    R6,0                 Reset file count for a new page.
         ST    R6,CURCOUNT          And store it so next call knows.
ENDINIT3 DS    0H
         B     NOPRTEXT             Return to caller.
* ---------------------- *
PXT1PRH  DS    0H
         MVC   FILENO,31(R3)            COPY FILE NO.
         L     R1,CURCOUNT              Increment current count
         LA    R1,1(,R1)                  of files
         ST    R1,CURCOUNT                  on this page.
         OUT   LINE1                    PRINT LINE 1.
         MVC   DSN,4(R3)                COPY DSN.
         MVC   CRDATE,42(R3)            COPY CREATION DATE.
         MVC   EXDATE,48(R3)            COPY EXPIRATION DATE.
         B     NOPRTEXT
* ---------------------- *
PXT1PRHA DS    0H
         MVC   FILENO,31(R3)            COPY FILE NO.
         L     R1,CURCOUNT              Increment current count
         LA    R1,1(,R1)                  of files
         ST    R1,CURCOUNT                  on this page.
         OUT   LINE1                    PRINT LINE 1.
         MVC   DSN,4(R3)                COPY DSN.
         MVC   CRDATE,42(R3)            COPY CREATION DATE.
         MVC   EXDATE,48(R3)            COPY EXPIRATION DATE.
         B     NOPRTEXT
* ---------------------- *
PXT2PRH  DS    0H
         MVC   CREATOR(8),17(R3)        WHO CREATED THE TAPE
         MVC   RECFM(1),4(R3)           COPY DCB PARAMETERS.
         CLI   15(R3),C'0'              3480 FULL FUNCTION MODE ?JDM1
         BNE   N3480F                                            JDM1
         MVC   DENSPEC(7),=CL7' '       BLANK OUT WORDS          JDM1
         B     IS3480F                                           JDM1
N3480F   DS    0H                                                JDM1
         MVC   DEN(1),15(R3)            COPY DEN NO.
IS3480F  DS    0H                                                JDM1
         MVC   RECFM+1(1),38(R3)
         MVC   RECFM+2(1),36(R3)
         MVC   LRECL,10(R3)             MOVE IN LRECL
         MVC   BLKSIZE,5(R3)            MOVE IN BLKSIZE
         OUT   LINE2                    PRINT LINE 2.
         B     NOPRTEXT
* ---------------------- *
PXT2PRHA DS    0H
         MVC   CREATOR(8),17(R3)        WHO CREATED THE TAPE
         MVC   RECFM(1),4(R3)           COPY DCB PARAMETERS.
         CLI   15(R3),C'0'              3480 FULL FUNCTION MODE ?JDM1
         BNE   N3480FA                                           JDM1
         MVC   DENSPEC(7),=CL7' '       BLANK OUT WORDS          JDM1
         B     IS3480FA                                          JDM1
N3480FA  DS    0H                                                JDM1
         MVC   DEN(1),15(R3)            COPY DEN NO.
IS3480FA DS    0H                                                JDM1
         MVC   RECFM+1(1),38(R3)
         MVC   RECFM+2(1),36(R3)
         MVC   LRECL,10(R3)             MOVE IN LRECL
         MVC   BLKSIZE,5(R3)            MOVE IN BLKSIZE
         OUT   LINE2                    PRINT LINE 2.
         B     NOPRTEXT
* ---------------------- *
PXT1PRE  DS    0H
         MVC   BLOCKS,54(R3)       Copy number of blocks.
         MVC   VOLSEQNO,27(R3)     Copy volume sequence number.
         BAL   R4,COMPUTE          Compute % of volume used by file
         OUT   LINE3               Print line 3.
         CLC   VOLSEQNO,=C'0001'   Test for not volume 1.
         BNE   FOUNDEOV
         CLI   2(R3),C'V'          Test for EOV label.
         BNE   NOTFEOV             EOV not found.
FOUNDEOV DS    0H                  EOV found.
         OUT   MSG2                Print message 2.
NOTFEOV  DS    0H
         CLI   0(R3),X'00'         Test for turnoff, from caller.
         BE    LASTFILE            Turnoff "label" received here.
         B     NOPRTEXT            Not received, just exit.
* ---------------------- *
PXT1PREA DS    0H
         MVC   BLOCKS,54(R3)       Copy number of blocks.
         MVC   VOLSEQNO,27(R3)     Copy volume sequence number.
         BAL   R4,COMPUTE          Compute % of volume used by file
         OUT   LINE3               Print line 3.
         CLC   VOLSEQNO,=C'0001'   Test for not volume 1.
         BNE   FOUNAEOV
         CLI   2(R3),C'V'          Test for EOV label.
         BNE   NOTFEOVA            EOV not found.
FOUNAEOV DS    0H                  EOV found.
         OUT   MSG2                Print message 2.
NOTFEOVA DS    0H
         CLI   0(R3),X'00'         Test for turnoff, from caller.
         BE    LASTFILE            Turnoff "label" received here.
         B     NOPRTEXT            Not received, just exit.
* ---------------------- *
PXT2PRE  DS    0H                  No print request from EOF2, EOV2.
         B     NOPRTEXT
* ---------------------- *
PXT2PREA DS    0H                  No print request from EOF2, EOV2.
         B     NOPRTEXT
* ---------------------- *
PXTUSE   DS    0H                  No print request from user labels.
         B     NOPRTEXT
* ---------------------- *
PXTUSEA  DS    0H                  No print request from user labels.
         B     NOPRTEXT
* ---------------------- *
NOPRTEXT DS    0H                  General exit from routines.
* ----------------------------------------------------------------- *
THEEND   DS    0H                  Finish call to this program.
         L     R13,4(,R13)
         MVC   16(4,R13),=F'0'     Return code 0 in R15
* - - - - - - - - - - Pass addresses of our passed areas back - none.
         LM    R14,R12,12(R13)
         BR    R14                 Go back to caller.
         EJECT
LASTFILE DS    0H                  At last call, calculate % of tape.
         L     R1,TOTALPCT
         C     R1,=F'10000'        Compare with 100 percent.
         BL    SUMMTOTM            Print summary total message
         L     R1,=F'10000'        Limit total to 100 percent.
SUMMTOTM DS    0H                  Summary total message.
         CVD   R1,WORK
         MVC   TOTPCT,=X'402021204B2020'
         ED    TOTPCT,WORK+5
         OUT   LASTLINE            Print volume summary line.
CLOSE    DS    0H
         OI    ENDFLAG,X'01'       This flag on, turns this program off
*                                  on subsequent calls.
         CLOSE OUTTL
         B     THEEND
* ----------------------------------------------------------------- *
* ---            S  U  B  R  O  U  T  I  N  E  S                --- *
* ----------------------------------------------------------------- *
PRINT    DS    0H
         L     R6,CURCOUNT         Count quantity stored from last call
         C     R6,MAXCOUNT         Test number of files already on page
         BH    PAGE                Start a new page if necessary.
         PUT   OUTTL               Print the line.
         BR    R7                  Return to caller.
PAGE     DS    0H
         LR    R2,R0               Save R0 which points to print line.
         PUT   OUTTL,HEADER        Print header line instead.
         LA    R6,1                Reset file count for a new page.
         ST    R6,CURCOUNT         And store it so next call knows.
         LR    R0,R2               Put print line back where it was.
         B     PRINT               Go and print the current line.
         SPACE
* ----------------------------------------------------------------- *
COMPUTE  DS    0H
         PACK  WORK,BLKSIZE
         CVB   R1,WORK             REG 1 = BLKSIZE
         SRL   R1,4                DIVIDE BY 16.
         LA    R1,70(,1)           ADD 70.
         PACK  WORK,BLOCKS
         CVB   R14,WORK            REG 14 = NO. OF BLOCKS
         MR    R0,14
         LA    R1,1400(,1)         ADD 5*280.
         D     R0,=F'280'          REG 1 = 100*(PERCENT OF VOLUME)
         C     R1,=F'10000'        COMPARE WITH 100 PERCENT.
         BL    TOTPCALC
         L     R1,=F'10000'        LIMIT RESULT TO 100 PERCENT.
TOTPCALC DS    0H
         CVD   R1,WORK
         A     R1,TOTALPCT         ACCUMULATE TOTAL FOR ALL FILES.
         ST    R1,TOTALPCT
         MVC   FILEPCT,=X'402021204B2020'
         ED    FILEPCT,WORK+5
         BR    R4                  RETURN.
         SPACE
* ----------------------------------------------------------------- *
*--OUTPUT FORMATS--***************************************************
         SPACE
HEADER   DC    C'1',13C'*',C' INFORMATION FROM LABELS OF TAPE NO. '
SERIAL   DC    C'XXXXXX',C' ON DATE'
DATE     DC    C' YY/DDD',C' AT TIME '
TIME     DC    C'HH.MM ',9C'*',C'   OWNER. '
OWNER    DC    CL10' '
OWNERE   DC    CL4' '
         DC    CL13' '
***********************************************************************
LINE1    DC    C'-   FILE NO. '
FILENO   DC    C'XXXX',CL116' '
***********************************************************************
LINE2    DC    CL4'0',C'DSN='
DSN      DC    CL17' ',CL3' ',C'CREATED '
CRDATE   DC    C'YYDDD',C' BY '
CREATOR  DC    CL8' ',C'   EXPIRES '
EXDATE   DC    C'YYDDD',CL1' ',C'RECFM='
RECFM    DC    C'XXX',C'   LRECL='
LRECL    DC    C'XXXXX',C'   BLKSIZE='
BLKSIZE  DC    C'XXXXX'                                          JDM1
DENSPEC  DC    C'   DEN='                                        JDM1
DEN      DC    CL4' '
         DC    CL13' '
***********************************************************************
LINE3    DC    CL8'0',C'THERE ARE '
BLOCKS   DC    C'XXXXXX',CL38' BLOCKS IN THIS FILE.'
         DC    C'THIS FILE OCCUPIES'
FILEPCT  DC    C' XXX.XX',CL46' PERCENT OF THE VOLUME.'
***********************************************************************
LASTLINE DC    C'-',13C'*'
TOTPCT   DC    C' XXX.XX'
         DC    CL112' PERCENT OF THIS VOLUME HAS BEEN USED.'
***********************************************************************
MSG1     DC    CL8'0',C'***THE '
MISLABEL DC    C'XXXX',CL114' LABEL WAS NOT FOUND.'
***********************************************************************
MSG2     DC    CL8'0',C'***THIS IS VOLUME '
VOLSEQNO DC    C'XXXX',CL103' OF A MULTI-VOLUME DATA SET.'
***********************************************************************
         LTORG
* ------------------------------------------------------------------- *
COUNT    EQU   6               REG 6 = COUNT OF FILES PER PAGE
         DC    X'40'
LINE     DC    CL133' '
* ------------------------------------------------------------------- *
LABELEBC DC    CL80' '
LABELIN  DS    0CL80
LABEL60  DC    CL60' '
LABEL20  DC    CL20' '
* ------------------------------------------------------------------- *
         ENTRY OUTTL
OUTTL    DCB   DSORG=PS,MACRF=PM,RECFM=FBA,LRECL=133,BLKSIZE=133,      X
               DDNAME=TAPELOUT
WORK     DC    D'0'
MAXCOUNT DC    F'7'            MAX NO. OF FILES PER PAGE
CURCOUNT DC    F'0'            CURRENT COUNT OF FILES PER PAGE
TOTALPCT DC    F'0'            100*(TOTAL %  OF VOLUME USED SO FAR)
PARMSAVE DC    F'0'
ENDFLAG  DC    X'00'
*              X'01'           DO NOT PRINT LABELS ANY MORE
INITFLAG DC    X'00'           Certain things only done once.
* ------------------------------------------------------------------- *
TRTA2E   DS    0D
         DC    XL16'000102030405060708090A0B0C0D0E0F'
         DC    XL16'101112131415161718191A1B1C1D1E1F'
         DC    XL16'405A7F7B5B6C507D4D5D5C4E6B604B61'
         DC    XL16'F0F1F2F3F4F5F6F7F8F97A5E4C7E6E6F'
         DC    XL16'7CC1C2C3C4C5C6C7C8C9D1D2D3D4D5D6'
         DC    XL16'D7D8D9E2E3E4E5E6E7E8E9ADE0BD5F6D'
         DC    XL16'79818283848586878889919293949596'
         DC    XL16'979899A2A3A4A5A6A7A8A9C04FD0A17F'
         DC    XL16'808182838485868788898A8B8C8D8E8F'
         DC    XL16'909192939495969798999A9B9C9D9E9F'
         DC    XL16'A0A14AB19FB26AB5BBB4AAABB0ADAFBC'
         DC    XL16'B08FB2B3BEA0B6B39DB99BB8B7B8B9AB'
         DC    XL16'C0C1C2C3C4C59EC7C8C9CACBCCCDCECF'
         DC    XL16'ACD1D2D3D4D5D6BFD8D9DADBDCDDAEDF'
         DC    XL16'E0E1E2E3E4E59CE7E8E9EAEBECEDEEEF'
         DC    XL16'8CF1F2F3F4F5F6E1F8F9FAFBFC8D8EFF'
         END
