DEFAULTA TITLE 'DEFAULT ALLOCATION'
         MACRO
&NAME    NOGO  &RC,&DEST=FREEALL
         AIF   (T'&RC EQ 'N').NUMERIC
&NAME    MVI   #PDE,DFRC&RC
         AGO   .COMMON
.NUMERIC ANOP  ,
&NAME    MVI   #PDE,&RC
.COMMON  B     &DEST
         MEND
         SPACE 1                                                  *TSM*
         MACRO ,                                                  *TSM*
&L       ICSP  &REG,&SUBPOOL                                      *TSM*
.*             THIS MACRO INSERTS A SUBPOOL NUMBER INTO A REGISTER*TSM*
         GBLC  &CPU                                               *TSM*
         AIF   ('&CPU' EQ '360').S360                             *TSM*
&L       ICM   &REG,8,=AL1(&SUBPOOL)                              *TSM*
         MEXIT ,                                                  *TSM*
.S360    ANOP  ,                                                  *TSM*
&L       O     &REG,=AL1(&SUBPOOL,0,0,0)                          *TSM*
         MEND                                                     *TSM*
         SPACE 1                                                  *TSM*
******************************************************************
*
* THIS PROGRAM IS CALLED BY A PROMPTER TO ALLOCATE DATASETS
* WHEN THE COMPLETE NAME MAY, OR MAY NOT, BE SUPPLIED
*
* THE CALLER COMPLETES A LIST OF POSSIBLE QUALIFIERS
* TO AID THE ALLOCATION.
*
* EXAMPLE  QUALIFIER LIST IS ASM, DATA, CNTL
*          NAME SUPPLIED PROG
*
*          THE ORDER OF ATTEMPTS IS USERID.PROG
*                                   USERID.PROG.ASM
*                                   USERID.PROG.DATA
*                                   USERID.PROG.CNTL
*          UNTIL ONE IS FOUND
*
*          IF THE NAME IS IN APOSTROPHES, THE USERID IS
*          NOT PREFIXED
*
* SEVERAL OPTIONS MAY BE REQUESTED:
*
* 1) DFLTONLY IF NONE OF THE LIST EXIST, THE PROGRAM CAN NOT DISPLAY
*             TO THE USER WHICH QUALIFIERS DO EXIST IN HIS
*             CATALOG AND LET HIM DECIDE.
*
* 2) DFLTPO   THE DATA SET MUST HAVE DSORG=PO.
*
* 3) DFLTPS   THE DATA SET MUST HAVE DSORG=PO.
*             A PARTITIONED DATA SET (DSORG=PO) IS ACCEPTED AS PS ONLY
*             IF A MEMBER NAME IS SPECIFIED IN THE PDE OR BY DEFAULT.
*
* 4) DFLTMEMB A MEMBER NAME MUST BE SPECIFIED.
*
* 5) DFLTDDND THE DDNAMES ASSIGNED BY DAIR ARE DISPLAYED TO THE USER.
*             SINCE PUTLINE IS USED, THE MESSAGES MAY BE ROUTED EITHER
*             TO THE TERMINAL OR TO A SEQUENTIAL DATA SET.
*
* 6) DFLTNEWK IF NONE OF THE NAMES IN THE LIST EXIST, A NEW DATASET
*          CAN BE ALLOCATED. IN THIS CASE DCB DATA ETC. MUST BE GIVEN.
*          ALSO, ONLY A SINGLE PDE IS PERMITTED WITH THIS OPTION.
*
* 7) DFLTDSNR RETURN THE COMPLETED DSNAMES TO THE CALLER.
*             IF THIS OPTION IS NOT SELECTED, ONLY THE DDNAMES
*             ARE RETURNED, AND THE ANSWER AREA ENTRIES ARE SHORTER.
*
*    REGISTER USAGE
*    R15,R0,R1    SVC CALLS AND RETURN CODES
*    R2           CURRENT PDE & CPPL
*    R3        DAIR PARM BLOCK BASE
*    R4        QUALIFIER LIST BASE
*    R5        DSCB BASE, PGPB BASE
*    R6        ANSWDSCT DSECT BASE
*    R7        DCBINFO DSECT BASE
*    R8
*    R9        WORK
*    R10
*    R11        PARMLIST ON ENTRY
*    R12        PROGRAM BASE
*    R13        SAVE AREA
*    R14        INTERNAL LINKAGE
*
*    FOLLOWING (DECIMAL) RETURN CODES PASSED VIA R15
*    04     DAIR ERROR
*    08     ANSWER AREA TOO SHORT (TOO MANY PDE'S)
*    12     NO MATCH FOUND FOR QUALIFIER LIST
*    16     PO/PS CHECK FAILED, OR MEMBER NAME REQUIRED
*    20     STRUCTURE OF 'ANSWER' HEADER INCORRECT
*    24     LOCATE OR OBTAIN ERROR
*    28     NO DCB INFO SUPPLIED FOR NEW DATASET
*    32     PUTLINE ERROR
*    36     PUTGET ERROR
*    40     CATALOG ERROR
         SPACE 2                                                  *TSM*
         GBLC  &SYSTEM                                            *TSM*
         GBLB  &RETRO36                 OS/VS2 R3.6 SERVICE ROUTINES
         SPACE 2                                                  *TSM*
         MTITL 'DEFAULT ALLOCATION'
         STITL 'INITIALIZATION'
DEFAULTA SAVEM BIGZERO
         USING DFLTDSCT,R11
         USING QUALDSCT,R4
*        USING ANSWDSCT,R6
         SPACE 2                                                  *TSM*
* BUILD DAIR PARAMETER LIST, ONCE ONLY AND INITIALIZE
         USING CPPL,R2
         L     R2,DFLTCPPL
         MVC   DAPLUPT(4),CPPLUPT
         MVC   DAPLECT(4),CPPLECT
         MVC   DAPLPSCB(4),CPPLPSCB
         LA    R9,ECB
         ST    R9,DAPLECB
         ST    R9,MYECB                 INITIALIZE IOPLECB        *TSM*
         LA    R9,MYDAPB
         ST    R9,DAPLDAPB
         SPACE 1                                                  *TSM*
*              BUILD PARAMETER LIST FOR IKJEFF18 (DAIRFAIL)       *TSM*
         LA    R7,MYDAPL                POINT AT DAIR PARAM LIST  *TSM*
         ST    R7,FAILDAPL                                        *TSM*
         LA    R15,DAIRRC               POINT AT DAIR RETURN CODE *TSM*
         ST    R15,FAILRC                                         *TSM*
         LA    R15,DAIRMSWR             POINT AT IKJEFF02 ADCON   *TSM*
         ST    R15,FAILMSWR                                       *TSM*
         MVI   DAIRID+1,1               SET ID=1                  *TSM*
         LA    R15,DAIRID               POINT AT DAIR ID          *TSM*
         ST    R15,FAILID                                         *TSM*
         SPACE 1                                                  *TSM*
         MVC   MYUPT,CPPLUPT            IOPL                      *TSM*
         MVC   MYECT,CPPLECT                                      *TSM*
         MVC   MYPTPB(PUTLEND),PUTL     PUTLINE PARM BLOCK        *TSM*
         MVC   MYPGPB(PUTGETLN),PUTGET  PUTGET  PARM BLOCK        *TSM*
         SPACE 1                                                  *TSM*
*     SAVE ADDRESS OF TOP OF ANSWER AREA
         MVC   CURANSW(4),DFLTANSW
* COUNT NUMBER OF PDE'S IN CHAIN
         SR    R7,R7
         TM    DFLTFLG1,DFLTNEWK  IS NEW ALLOWED ?
         BO    NOCONCAT            YES - CAN'T BE LIST
         USING PDEDSCT,R2
         L     R2,DFLTPDE
LOOKPDE  L     R9,PDENEXT         GET ADDR OF NEXT PDE
         LTR   R9,R9              IS IT ZERO
         BNP   @DAIR0C            ALLOC SPACE FOR CONCAT BLOCK   BASTNJ
         LA    R7,1(,R7)          BUMP PDE COUNT
         LR    R2,R9             UPDATE PDE BASE
         B     LOOKPDE            ROUND AGAIN
@DAIR0C  LTR   R7,R7
         BZ    NOCONCAT           ZERO IF ONLY ONE PDE
         LA    R7,1(,R7)          LAST PDE WASN'T INCLUDED
         STH   R7,#PDE            TEMP SAVE
         SLL   R7,3               # PDE'S X 8
         LA    R7,12(,R7)         PLUS 12 = LENGTH DAIR0C BLOCK
         ST    R7,CONCATLN        STORE LENGTH
         GETMAIN R,LV=(R7)       GET STORAGE                      *TSM*
         ST    R1,CONCATPB        SAVE ADDRESS
         OI    MYFLAGS,CONCAT     SHOW CONCAT NEEDED
         LH    R7,#PDE            RESTORE # PDE'S
         B     ANSTEST            MORE CHECKS YET
         SPACE 1
* CHECK THAT LENGTH OF ANSWER AREA IS ADEQUATE
*  SECOND HALF WORD IN ANSWER AREA MUST BE ZERO
NOCONCAT LA    R7,1               ONE PDE ONLY
         STH   R7,#PDE            SAVE FOR LATER
ANSTEST  L     R8,DFLTANSW         POINT AT ANSWER AREA
         USING ANSWDSCT,R8
         XR    R9,R9
         CH    R9,ANSWLEN+2       COMPARE SECOND HALFWORD
         BE    ANS2OK             GOOD, CHECK FIRST HALFWORD
         NOGO  ANSW
ANS2OK   LA    R9,ANSWSHEL              LENGTH OF SHORT ENTRY
         TM    DFLTFLG1,DFLTDSNR        ARE DSNAMES TO BE RETURNED ?
         BZ    *+8                       NO - DON'T NEED LONG ENTRY
         LA    R9,ANSWENTL              LENGTH OF LONG ENTRY
         STH   R9,LNANSENT              SAVE LENGTH OF ENTRY
         MR    R6,R9                    R7 NOW HAS REQUIRED LENGTH
         LA    R7,4(,R7)                ADJUST FOR PREFIX
         CH    R7,ANSWLEN               COMPARE TO GIVEN
         DROP  R8
         BNH   ANS1OK                   NOT LOW, OK
         NOGO  SHRT
         STITL 'MAINLINE'                                         *TSM*
ANS1OK   L     R2,DFLTPDE         POINT AT FIRST PDE AGAIN
PDELOOP  NI    MYFLAGS,255-SECOND-NEEDMNAM-ISMEMNAM               *TSM*
         L     R7,PDEDSN                                          *TSM*
         MVC   QUALNOW(4),DFLTQUAL    INITIALIZE TO REAL QUALLIST
         MVI   DSNLEN+1,0               ZERO DSNAME LENGTH FIELD  *TSM*
         MVI   DSNVAL,C' '              BLANK DSNAME              *TSM*
         MVC   DSNVAL+1(43),DSNVAL                                *TSM*
         CLI   0(R7),C'*'         TERMINAL?
         BNE   NOTERM
         L     R3,DAPLDAPB
         TM    PDEFLG2,PDEPRES          IS MEMBER SPECIFIED ?     *TSM*
         BZ    @DAIR1C                   NO  - PROCEED WITH DAIR  *TSM*
         USING DAPB08,R3                 YES - THAT'S A NO-NO     *TSM*
         MVC   DA08CD(DA08LEN),DAIR08   SET UP FOR FAKE DAIRFAIL  *TSM*
         MVI   DSNLEN+1,1               DSN='*'                   *TSM*
         MVI   DSNVAL,C'*'                                        *TSM*
         LH    R15,PDEMEML              MEMBER NAME FROM PDE      *TSM*
         BCTR  R15,0                                              *TSM*
         L     R1,PDEMEMB
         EX    R15,MOVEMEMB                                       *TSM*
         LA    R0,DSNLEN                DA08PDSN<-L(DSN)          *TSM*
         ST    R0,DA08PDSN                                        *TSM*
         MVI   DAIRRC+3,DRRCDYNA        DAIR RETURN CODE = 0C     *TSM*
         MVC   DA08DARC,=X'0330'        MEMBER SPECIFIED          *TSM*
         LINK  SF=(E,LINKFAIL),MF=(E,FAILDAPL)                    *TSM*
         NOGO  DAIR                                               *TSM*
         SPACE 1                                                  *TSM*
         USING DAPB1C,R3
@DAIR1C  MVC   DA1CCD(DA1CLEN),DAIR1C   ADD DAIR CONSTANTS
         BAL   R14,DAIRGO         CALL DAIR
         B     ENDLOOP            GOOD RETURN
         NOGO  DAIR               BAD RETURN
NOTERM   EQU   *
*  COMPLETE THE DSN BUFFER
         TM    PDEFLG1,PDEAPST            NAME IN '' ?
         BO    CONT
         AIF   ('&SYSTEM' NE 'MVS' AND NOT &RETRO36).SVS          *TSM*
         L     R9,DAPLUPT               ADDRESS UPT               *TSM*
         USING UPT,R9                                             *TSM*
         SR    R8,R8                                              *TSM*
         IC    R8,UPTPREFL              GET AND SAVE THE LENGTH   *TSM*
         STH   R8,DSNLEN                    OF THE DEFAULT PREFIX *TSM*
         BCTR  R8,0                     LNE-1 FOR EX OF MVC       *TSM*
         LA    R5,DSNVAL                TARGET                    *TSM*
         LA    R6,UPTPREFX              SOURCE                    *TSM*
         DROP  R9                                                 *TSM*
         EX    R8,DSNMOVE               MOVE IN PREFIX            *TSM*
         AGO   .SVSMVS                                            *TSM*
.SVS     L     R9,DAPLPSCB              ADDRESS PSCB              *TSM*
         USING PSCB,R9                                            *TSM*
         SR    R8,R8
         IC    R8,PSCBUSRL              GET AND SAVE THE LENGTH   *TSM*
         STH   R8,DSNLEN                    OF THE USERID         *TSM*
         BCTR  R8,0                     LNE-1 FOR EX OF MVC       *TSM*
         LA    R5,DSNVAL                TARGET
         LA    R6,PSCBUSER              SOURCE
         DROP  R9                                                 *TSM*
         EX    R8,DSNMOVE               ZAP IN USERID
.SVSMVS  ANOP  ,                                                  *TSM*
CONT     LH    R8,PDEDSNL               LENGTH OF NAME IN PDE
         LTR   R8,R8                    ZERO ?
         BZ    LOCALIAS                  DONE - PROCESS ALIAS     *TSM*
         LA    R5,DSNVAL
         AH    R5,DSNLEN                CURRENT POINTER IN BUFFER
         TM    PDEFLG1,PDEAPST          NAME IN '' ?
         BO    NOUID                    YES
         MVI   0(R5),C'.'               ADD PERIOD
         LH    R9,DSNLEN                BUMP
         LA    R9,1(,R9)                DSNLEN
         STH   R9,DSNLEN                AND
         LA    R5,1(,R5)                POINTER IN BUFFER
NOUID    L     R6,PDEDSN                SOURCE
         LA    R3,255(,R8)              LEN-1 FOR EX OF MVC       *TSM*
         EX    R3,DSNMOVE               ADD NAME FROM PDE         *TSM*
         AH    R8,DSNLEN                UPDATE
         STH   R8,DSNLEN                DSNLEN
         SPACE 1                                                  *TSM*
         MNOTE 4,'ADD CODE TO HANDLE VSAM CATALOG'                *TSM*
         SPACE 1                                                  *TSM*
LOCALIAS MVI   CAMOPTN1,X'44'           SET FUNNY LOCATE CODE     *TSM*
         LA    R0,DSNVAL                SET DSN IN CAMLST         *TSM*
         ST    R0,CAMPTR1                                         *TSM*
         LA    R0,DSCB                  SET WORK AREA IN CAMLST   *TSM*
         ST    R0,CAMWORKP                                        *TSM*
        LOCATE CAMOPTN1                 LOCATE AND TRANSLATE      *TSM*
         CH    R15,=Y(LCRCINDX)         IS THIS INDEX OR ALIAS ?  *TSM*
         BZ    ALIASLEN                  YES - CALCULATE NEW LEN  *TSM*
         LTR   R15,R15                  IS THIS DSPE ?            *TSM*
         BNZ   @DAIR08                   NO  - NAME UNCHANGED     *TSM*
ALIASLEN LA    R0,44                    CALCULATE NEW DSN LENGTH  *TSM*
         LA    R1,DSNVAL+43                                       *TSM*
         CLI   0(R1),C' '                                         *TSM*
         BNE   *+10                                               *TSM*
         BCTR  R1,0                                               *TSM*
         BCT   R0,*-10                                            *TSM*
         STH   R0,DSNLEN                                          *TSM*
         LTR   R15,R15                  IS THIS FULL OLD DSNAME ? *TSM*
         BNZ   @DAIR08                   NO  - SKIP OBTAIN        *TSM*
         TM    DFLTFLG1,DFLTPS          DSORG CHECK REQUIRED ?    *TSM*
         BZ    @DAIR08                   NO  - OBTAIN NOT NEEDED  *TSM*
         MVI   CAMOPTN1,OBFLAG          SET CAMLST FOR OBTAIN     *TSM*
         LA    R0,DSNVAL                                          *TSM*
         ST    R0,DSNPTR                                          *TSM*
         LA    R0,VOLSER                                          *TSM*
         ST    R0,VOLPTR                                          *TSM*
         LA    R0,DS1FMTID                                        *TSM*
         ST    R0,CAMWORKP                                        *TSM*
        OBTAIN CAMLIST                                            *TSM*
         LTR   R15,R15                                            *TSM*
         BNZ   @DAIR08                                            *TSM*
         TM    DS1DSORG,NWDSPO                                    *TSM*
         BZ    @DAIR08                                            *TSM*
         OI    MYFLAGS,NEEDMNAM                                   *TSM*
         SPACE 1                                                  *TSM*
         MNOTE 0,'REWRITE USING SUBROUTINES TO REMOVE REDUNDANCY' *TSM*
         SPACE 1                                                  *TSM*
* COMPLETE THE DAIR08 PARM BLOCK
@DAIR08  L     R3,DAPLDAPB
         USING DAPB08,R3
         MVC   DA08CD(DA08LEN),DAIR08     ADD CONSTANTS
         LA    R5,DSNLEN
         ST    R5,DA08PDSN
         TM    PDEFLG2,PDEPRES            MEMBER ?
         BO    MEMB
         TM    MYFLAGS,NEEDMNAM         SHOULD THERE BE ONE ?     *TSM*
         BO    *+12                      YES - PER OBTAIN         *TSM*
         TM    DFLTFLG1,DFLTMEMB        EXPLICITLY REQUESTED ?    *TSM*
         BZ    @PASS                     NO  - NOT NEEDED         *TSM*
         MVC   DA08MNM,DFLTMEM          ASSUME DEFAULT MEMBER     *TSM*
         TM    DFLTMEM,X'3F'            IS THERE ONE ?            *TSM*
         BNZ   SETISMEM                  YES - USE IT             *TSM*
         BAL   R9,PRMPTMEM               NO  - PROMPT FOR IT      *TSM*
         B     SETISMEM                                           *TSM*
         SPACE 1                                                  *TSM*
MOVEMEMB MVC   DA08MNM(0),0(R1)                                   *TSM*
MOVEPASS MVC   DA08PSWD(0),0(R8)                                  *TSM*
MEMB     LH    R15,PDEMEML              MEMBER NAME FROM PDE      *TSM*
         BCTR  R15,0                                              *TSM*
         L     R1,PDEMEMB
         EX    R15,MOVEMEMB                                       *TSM*
SETISMEM OI    MYFLAGS,ISMEMNAM         FLAG "MEMBER SPECIFIED"   *TSM*
@PASS    TM    PDEFLG3,PDEPRES            PASSWORD?
         BZ    NOPASS
         LH    R15,PDEPASL              PASSWORD FROM PDE         *TSM*
         BCTR  R15,0                                              *TSM*
         L     R8,PDEPASS                                         *TSM*
         EX    R15,MOVEPASS                                       *TSM*
* IN CASE OF DISP=NEW, ADD DCB INFO
NOPASS   TM    MYFLAGS,ISNEW            NEW DATASET REQUIRED ?    *TSM*
         BZ    NOTNEW
         L     R7,DFLTDCB                  GET ADDRESS OF INFO
         USING NWDSDSCT,R7
         LTR   R7,R7                     SUPPLIED?
         BNZ   DCBOK
         NOGO  NODC
DCBOK    MVC   DA08BLK(16),NWDSBLK         SPACE INFO'S
         OI    DA08DSP1,DFLTNEW
         OI    DA08DPS2,DFLTCAT
         OI    DA08DPS3,DFLTCAT
         MVC   DA08CTL,NWDSFLG1           SPACE UNITS
         MVC   DA08DSO,NWDSFLG2           DSORG
         TM    MYFLAGS,ISMEMNAM           IS THERE A MEMBER NAME? *TSM*
         BZ    *+8                         NO                     *TSM*
         MVI   DA08DSO,NWDSPO              YES - FORCE DSORG=PO   *TSM*
         TM    DA08DSO,NWDSPO             DSORG=PO ?              *TSM*
         BO    *+10                        YES                    *TSM*
         XC    DA08DQTY,DA08DQTY           NO  - NO DIRECTORY     *TSM*
         B     D08GO
NOTNEW   MVC   DA08DSP1,DFLTFLG2
         MVC   DA08DPS2,DFLTFLG3
         MVC   DA08DPS3,DFLTFLG4
D08GO    BAL   R14,DAIRGO                 GO DO DAIR
         B     CHEKDSCB                  GOOD RETURN
         NOGO  DAIR                      BAD RETURN
*                                        ACCEPTABLE RETURN
         CLI   DA08CTRC+1,LCRCINDX       IS NAME INDEX LEVEL OR ALIAS ?
         BNE   TESTNEW                    NO - TEST IF NEW DS ALLOWED
         SPACE 1
* CHECK IF THIS IS SECOND TIME ROUND. IF YES CATALOG ERROR
         TM    MYFLAGS,SECOND
         BZ    DA14GO               NO, OK
         LINK  SF=(E,LINKFAIL),MF=(E,FAILDAPL)                    *TSM*
         NOGO  CTLG
DA14GO   L     R3,DAPLDAPB
         USING DAPB14,R3
         MVC   DA14CD(DA14LEN),DAIR14   SET DAIR CONSTANTS
         LA    R5,DSNLEN
         ST    R5,DA14PDSN        POINT TO DSN BUFFER
         LA    R5,DSCB            POINT TO LOCATE AREA            *TSM*
         ST    R5,DA14PRET
         XC    0(256,R5),0(R5)    DAIR14 SHOULD ZERO WORK AREA
         LA    R6,256             BUT IT DOESN'T
         SLL   R6,16              SPACE FOR 32 QUALIFIERS GIVEN
         ST    R6,CAMWORK         ZAP IN LENGTH OF AREA
         OI    MYFLAGS,SECOND     INDICATE DAIR14 DONE
         BAL   R14,DAIRGO         GO DO DAIR
         B     COMPARE            GOOD RETURN
         NOGO  DAIR               BAD RETURN
* NOW COMPARE ACTUAL QUALIFIERS TO REQUIRED LIST
COMPARE  CLI   DSCB,0                   ANY QUALIFIER IN CATALOG? *TSM*
         BE    TESTNEW                   NO  - SEE IF NEW ALLOWED *TSM*
         L     R4,QUALNOW               FIRST QUALIFIER           *TSM*
QUALOOP1 LA    R5,DSCB                  FIRST NAME FROM CATALOG   *TSM*
QUALOOP2 CLC   QUALNAME,0(R5)           QUALIFIER=NAME ?          *TSM*
         BE    @CONCAT                   YES - USE IT             *TSM*
         LA    R5,8(,R5)                NEXT NAME FROM CATALOG    *TSM*
         CLI   0(R5),0                  IS THIS END OF LIST ?     *TSM*
         BNE   QUALOOP2                  NO  - TRY AGAIN          *TSM*
         TM    QUALLEN,LAST              YES - LAST QUALIFIER ?   *TSM*
         LA    R4,10(,R4)                           (IN CASE NO)  *TSM*
         BNO   QUALOOP1                        NO  - TRY NEXT QUAL*TSM*
         SPACE 1
* IF HERE, NO MATCH WAS FOUND
         TM    DFLTFLG1,DFLTONLY        QUALIFIER LIST REQUIRED ? *TSM*
         BZ    SHOWLIST                  NO  - CHOOSE FROM CAT.   *TSM*
TESTNEW  TM    DFLTFLG1,DFLTNEWK        IS DISP=NEW ALLOWED ?     *TSM*
         BZ    NOMATCH                   NO  - SHOW ERROR         *TSM*
         L     R4,DFLTQUAL         POINT AT FIRST QUALIFIER
         OI    MYFLAGS,ISNEW            SIGNAL NEW FOR LATER      *TSM*
         B     @CONCAT              AND CHEAT
         SPACE 1                                                  *TSM*
SHOWLIST LA    R0,SEG1NXT               PTPBOPUT->SEG1            *TSM*
         ST    R0,MYOPUT                                          *TSM*
         LA    R0,SEG2NXT               SEG1NEXT->SEG2            *TSM*
         ST    R0,SEG1NXT                                         *TSM*
         LA    R0,SEG3NXT               SEG2NEXT->SEG3            *TSM*
         ST    R0,SEG1NXT                                         *TSM*
         MVC   SEG1TXT,AMBGUOUS         TSM58600I AMBIGUOUS SPEC  *TSM*
         MVC   SEG1DDN,DFLTDESC                                   *TSM*
         MVI   SEG1PFX+1,SEG1END-SEG1PFX                          *TSM*
         MVC   SEG2TXT,QUALSFOR         IKJ58600I QUALIFIERS FOR  *TSM*
         MVC   SEG2DSN(45),SEG2DSN-1                              *TSM*
         LH    R8,DSNLEN                MOVE DSNAME               *TSM*
         BCTR  R8,0                                               *TSM*
         EX    R8,SEG2MOVE                                        *TSM*
         LA    R1,SEG2DSN+2(R8)         ->DSN+L'DSN+1 (1 BL LEFT) *TSM*
         MVC   0(3,R1),=C'ARE'            '... ARE'               *TSM*
         LA    R0,SEG2DSN+5-SEG2PFX(,R8)  DSN+L'DSN+4             *TSM*
         STH   R0,SEG2PFX                                         *TSM*
         XC    SEG3NXT(8),SEG3NXT                                 *TSM*
         MVI   SEG3PFX+1,SEG3END-SEG3PFX                          *TSM*
         MVC   SEG3TXT,SEG2TXT                                    *TSM*
         LA    R5,DSCB                  FIRST NAME FROM CATALOG   *TSM*
         MVC   SEG3QUAL(SEG3END-SEG3QUAL),SEG3QUAL-1              *TSM*
SEG3LOOP LA    R3,7                     MAXIMUM QUALIFIER IN LINE *TSM*
         LA    R6,SEG3QUAL              FIRST NAME IN MESSAGE     *TSM*
SEG3NXTQ MVC   0(8,R6),0(R5)                                      *TSM*
         LA    R5,8(,R5)                                          *TSM*
         LA    R6,9(,R6)                                          *TSM*
         CLI   0(R5),0                                            *TSM*
         BE    SEG3DONE                                           *TSM*
         BCT   R3,SEG3NXTQ                                        *TSM*
         SPACE 1                                                  *TSM*
       PUTLINE PARM=MYPTPB,                                       *TSM**
               OUTPUT=(,MULTLIN,DATA),MF=(E,MYIOPL)               *TSM*
         LTR   R15,R15                                            *TSM*
         BZ    *+12                                               *TSM*
         NOGO  PTLN                                               *TSM*
         SPACE 1                                                  *TSM*
         LA    R0,SEG3NXT               SETUP PUTLINE FOR SEG3    *TSM*
         ST    R0,MYOPUT                                          *TSM*
         B     SEG3LOOP                 SHOW NEXT 7 QUALIFIERS    *TSM*
         SPACE 1                                                  *TSM*
SEG3DONE LA    R0,SEG3PFX+1             SEG3PFX=END+2-(BEGIN+1)   *TSM*
         SR    R6,R0                                              *TSM*
         STH   R6,SEG3PFX                                         *TSM*
         SPACE 1                                                  *TSM*
         PUTLINE PARM=MYPTPB,                                     *TSM**
               OUTPUT=(,MULTLIN,DATA),MF=(E,MYIOPL)               *TSM*
         LTR   R15,R15                                            *TSM*
         BZ    *+12                                               *TSM*
         NOGO  PTLN                                               *TSM*
         SPACE 1                                                  *TSM*
         MVI   OLD1NUML+3,1             PROMPT:                   *TSM*
         LA    R0,ENTQUAL                IKJ58601A ENTER QUALIFIER-
         ST    R0,OLD1SEG1                                        *TSM*
         SPACE 1                                                  *TSM*
         PUTGET PARM=MYPGPB,                                      *TSM**
               OUTPUT=OLD1NUML,MF=(E,MYIOPL)                      *TSM*
         LTR   R15,R15                                            *TSM*
         BZ    FAKEQUAL                                           *TSM*
         NOGO  PTGT                                               *TSM*
         SPACE 1                                                  *TSM*
*              BUILD A PSEUDO QUALIFIER LIST AND PASS BACK        *TSM*
FAKEQUAL L     R1,MYIBUF                MESSAGE FROM PUTGET       *TSM*
         LH    R15,0(,R1)               MESSAGE LENGTH+4          *TSM*
         LR    R0,R15                                    FOR FREE *TSM*
         SH    R15,=H'4'                              +0          *TSM*
         BZ    FMNO                     ERROR IF NO QUALIFIER     *TSM*
         STH   R15,MSGAREA                                        *TSM*
         OI    MSGAREA,LAST             SIGNAL LAST (ONLY) ENTRY  *TSM*
         BCTR  R15,0                    MESSAGE LENGTH-1 FOR EX   *TSM*
         MVI   MSGAREA+2,C' '           BLANK QUALIFIER AREA      *TSM*
         MVC   MSGAREA+3(7),MSGAREA+2                             *TSM*
         LA    R5,MSGAREA+2             MOVE QUALIFIER            *TSM*
         LA    R6,4(,R1)                                          *TSM*
         EX    R15,DSNMOVE                                        *TSM*
         EX    R15,TRAN                 TRANSLATE QUALIFIER TO UC *TSM*
         LA    R4,MSGAREA               QUALNOW->PSEUDO LIST      *TSM*
         ST    R4,QUALNOW                                         *TSM*
         LA    R5,DSCB                  RESTORE WORKAREA POINTER  *TSM*
         ICSP  R0,1                     FREE MESSAGE (SP 1)       *TSM*
      FREEMAIN R,A=(1),LV=(0)                                     *TSM*
         B     COMPARE                  BUILD FULL DSNAME         *TSM*
         SPACE 1                                                  *TSM*
FMNO     ICSP  R0,1                     FREE MESSAGE (SP 1)       *TSM*
      FREEMAIN R,A=(1),LV=(0)                FROM PUTGET          *TSM*
NOMATCH  NOGO  NONE                                               *TSM*
         SPACE 1                                                  *TSM*
*  WE NOW HAVE A DSN WITHOUT QUALIFIER AND A QUALIFIER
*  JOIN THE TWO TOGETHER AND ALLOCATE THE COMPLETED NAME
         SPACE 1
@CONCAT  LH    R3,DSNLEN                                          *TSM*
         LA    R5,DSNVAL(R3)    POINT PAST DSN BUFFER
         MVI   0(R5),C'.'       ADD PERIOD
         LA    R5,1(,R5)        TARGET
         LA    R0,X'7F'         GET LENGTH OF CHOSEN QUALIFIER
         LH    R8,QUALLEN           (BITS 1-7)
         NR    R8,R0
         BCTR  R8,0             DECREMENT
         LA    R6,QUALNAME      SOURCE
         EX    R8,DSNMOVE       CONCATENATE TO DSN
         LA    R5,2(R3,R8)      DSN+L'DSN+L'PER+(L'QUAL-1)+1
         STH   R5,DSNLEN
         B     @DAIR08          TRY AGAIN
CHEKDSCB EQU   *
*    IF NO CHECKS NEEDED, SKIP LOCATE/OBTAIN
         TM    DFLTFLG1,DFLTPO+DFLTPS
         BZ    ENDLOOP                   GOOD, LESS WORK
         LA    R5,DSCB                 ADDRESS DSECT
         MVC   CAMLIST(4),LOCFLAG         LOCATE FLAGS
         LA    R8,DSNVAL
         ST    R8,DSNPTR
         ST    R5,WORKPTR
         LOCATE CAMLIST
         LTR   R15,R15
         BZ    LOCATEOK
         L     R3,DAPLDAPB              POINT TO DAPL (DA08)      *TSM*
         USING DAPB08,R3                                          *TSM*
         STH   R15,DA08CTRC             CTRC=  XX                 *TSM*
         MVI   DA08DARC,X'17'           DARC=17YY                 *TSM*
         B     FAKEDRFL                 FAKE DAIRFAIL             *TSM*
         SPACE 1                                                  *TSM*
LOCATEOK EQU   *
*  SET UP OBTAIN
         MVI   CAMLIST,OBFLAG         OBTAIN FLAG
         LA    R8,VOLSER
         ST    R8,VOLPTR
         OBTAIN CAMLIST
         LTR   R15,R15
         BZ    OBTAINOK
         L     R3,DAPLDAPB              POINT TO DAPL (DA08)      *TSM*
         USING DAPB08,R3                                          *TSM*
         MVI   DA08DARC,X'67'           DARC=67YY                 *TSM*
FAKEDRFL MVI   DAIRRC+3,DRRCDYNA        DAIR RETURN CODE = 0C     *TSM*
         STC   R15,DA08DARC+1           DARC=X7YY                 *TSM*
         LINK  SF=(E,LINKFAIL),MF=(E,FAILDAPL)                    *TSM*
         NOGO  LCOB
         DROP  R3                                                 *TSM*