         MACRO
&LABEL   DFLTAQ &PREFIX=QUAL,          PREFIX TO ALL VARIABLE NAMES ....
               &LIST=,                 'NO' SUPPRESSES LISTING..........
               &DSECT=,                'NO' SUPPRESSES DSECT ...........
               &EQU=,                  'NO' SUPPRESSES EQU'S           *
               &QUAL=
         LCLC  &A,&B,&C,&D
         LCLB  &E
         LCLC  &LEN,&NAME
         LCLA  &F
         LCLA  &FLAG,&I,&L
         PUSH  PRINT
&D       SETC  '&LIST'
         @LIST &D
&A       SETC  '&PREFIX'
&B       SETC  '&DSECT'
&C       SETC  '&LABEL'
         DSCTCARD &A,&B,&C
&F       SETA  K'&PREFIX
         AIF   (&F LE 4).L0
&A       SETC  '&PREFIX'(1,4)
.L0      ANOP
&LEN     SETC  '&A.LEN'
&NAME    SETC  '&A.NAME'
         AIF   (N'&QUAL NE 0).DOQUAL
&A.LEN   DS    H                  LENGTH OF NAME
*  MARK LAST QUALIFIER IN LIST BY SETTING HIGH ORDER BIT OF
*  LENGTH FIELD .
&A.NAME  DS    CL8                NAME, LEFT JUSTIFIED, PADDED
.POP     POP   PRINT
         MEXIT ,
.DOQUAL  ANOP
&I       SETA  &I+1
&L       SETA  K'&QUAL(&I)
         AIF   (&I LT N'&QUAL).DOQUAL1
&FLAG    SETA  1
.DOQUAL1 ANOP  ,
&LEN     DC    0H'0',YL.1(&FLAG.),YL.15(&L.)
&NAME    DC    CL8'&QUAL(&I).'    NAME, LEFT JUSTIFIED, PADDED   *TEMP*
         AGO   .PADTMP                                           *TEMP*
&NAME    DC    C'&QUAL(&I).'      NAME, LEFT JUSTIFIED
.PADTMP  ANOP  ,                                                 *TEMP*
&LEN     SETC  ''
&NAME    SETC  ''
         AIF   (&I LT N'&QUAL).DOQUAL
         POP   PRINT
         MEND
