         MACRO
         DSCTCARD &PREFIX,&DSECT,&NAME
.* IF DSECT=NO, DO NOT CREATE DSECT CARD
.* ELSE IF NAME NOT NULL THEN DSECT NAME IS 'NAME'
.* ELSE DSECT NAME IS 'PREFIX.DSCT'
         LCLC  &A
&A       SETC  '&PREFIX'
         AIF   ('&DSECT' NE 'NO').L1
         MEXIT
.L1      AIF   (K'&PREFIX LE 4).L2
         MNOTE 12,'PREFIX OPERAND TRUNCATED TO FOUR CHARACTERS'
&A       SETC  '&PREFIX'(1,4)
.L2      AIF   ('&NAME' EQ '').L3
&NAME    DSECT
         MEXIT
.L3      ANOP
&A.DSCT  DSECT
         MEND
