SCR      TITLE 'SCRIPT -- PROMPTER FOR NSCRIPT -- GABRIEL SILBERMAN'
*
*
*       "NSCRIPT"   TSO   PROMPTER
*
*
*    WRITTEN BY:           GABRIEL SILBERMAN
*                          COMPUTER CENTER
*                          TECHNION - ISRAEL INSTITUTE OF TECHNOLOGY
*                          TECHNION CITY - HAIFA
*                          ISRAEL
         SPACE 1
*    CORRECTED BY:         SHMUEL METZ
*                          COMPUTER CENTER
*                          TECHNION
         SPACE 2
*              THIS PROGRAM MAY NOT BE DISTRIBUTED WITHOUT PERMISSION.
*              PERMISSION TO DISTRIBUTE IS EXPLICITLY GRANTED TO:
         SPACE 1
*                           GERHARD POSTPISCHIL
*                           AMS COMPUTER CENTER
         SPACE 1
*                           SHARE, GUIDE, AND ALL COMMITTEES AND
*                             WORKING GROUPS THEREOF,
*                             INCLUDING SPLA AND ALL PROJECTS.
         SPACE 1
*                           UNIVERSITY OF WATERLOO
*                           WATERLOO - ONTARIO
*                           CANADA
         EJECT
         MACRO
&NAME    RANGE &LOW,&HIGH,&ID
&NAME    SAVEM NOSAVE,NOENTRY,BASE=,ID=&ID,DSECT=PPL
         LCLA  &I,&HIGHN
         LCLC  &H
&I       SETA  K'&HIGH
         AIF   ('&HIGH'(&I,1) EQ 'K').K
&HIGHN   SETA  &HIGH
         AGO   .BAL
.K       ANOP
&H       SETC  '&HIGH'(1,&I-1)
&HIGHN   SETA  (&H*1024)
.BAL     BAL   R6,NUMKEYCK
         DC    AL1(&LOW),AL3(&HIGHN)
         MEND
         SPACE 3
         MACRO
&L       MCOND &NAME,&LABMVC=
&L       CLI   ##&NAME.+1,1   /IF NOT SELECTED THEN IGNORE
         BNE   BP&NAME.
&LABMVC  MCONS &NAME.
BP&NAME. EQU   *
         SPACE 1
         MEND
         SPACE 3
         MACRO
&L       MCONS &NAME,&SIGN=BLANK
         LCLA   &LEN
&LEN     SETA  K'&NAME
&L       MVC   0(&LEN,R7),=C'&NAME.'    /MOVE PARAMETER TO STRING
         AIF   ('&SIGN' EQ 'BLANK').NOSIGN
         MVI   &LEN.(R7),&SIGN            /INSERT SIGN AFTER PARAM.
.NOSIGN  ANOP
         LA    R7,1+&LEN.(,R7)          /INCREMENT OFFSET
         MEND
         SPACE 3
         MACRO
&L       MKEYW &NAME,&TYPE=SINGLE
         LCLC  &SIGN
         AIF   ('&TYPE' EQ 'RANGE').RANGE
&SIGN    SETC  'BLANK'
.RANGE   ANOP
&L       TM    ##&NAME.+6,PRESENT
         BZ    BP&NAME.       /ABSENT,IGNORE
         MCONS &NAME.,SIGN=EQUAL
         L     R5,##&NAME.    /PTR. TO NUMBER
         MVAR  &NAME.,SIGN=&SIGN
         AIF   ('&TYPE' NE 'RANGE').NORANGE
         TM    ##&NAME.+8+6,PRESENT
         BZ    NR&NAME
         MVI   0(R7),C':'
         LA    R7,1(,R7)       UPDATE OFFSET
         L     R5,##&NAME.+8  /PTR. TO NUMBER
         MVAR  &NAME.2,SIGN=
NR&NAME  LA    R7,1(,R7)       UPDATE OFFSET
.NORANGE ANOP
BP&NAME. EQU   *
         SPACE 1
         MEND
         SPACE 3
         MACRO
         MVAR  &NAME,&SIGN=BLANK
         LH    R4,##&NAME+4   /LENGTH OF NUMBER
         BCTR  R4,0           /-1 FOR "EX"
         EX    R4,MOVEPR4     /PARM. TO PLACE
         LA    R7,1(R4,R7)       /UPDATE OFFSET
         AIF   ('&SIGN' EQ '').NOSIGN
         AIF   ('&SIGN' EQ 'BLANK').BLSIGN
         MVI   0(R7),&SIGN    /INSERT SIGN AFTER PARAM.
.BLSIGN  ANOP
         LA    R7,1(,R7)      /UPDATE OFFSET
.NOSIGN  ANOP
         MEND
         SPACE 1
         MTITL 'SCRIPT -- PROMPTER FOR NSCRIPT -- GABRIEL SILBERMAN',  *
               LEN=55
         STITL 'INITIALIZATION'
SCR      SAVEM BIGZERO,DSECT=PPL,END=PPLEND
         USING CPPL,R11
         SPACE 1
*
***>   CALL IKJPARS
*
         SPACE 1
         ST    R11,DFLTCPPL        /ADD. OF CPPL FOR DEFAULTA
         MVC   PPLCBUF,CPPLCBUF    /ADD. OF COMMAND BUFFER
         MVC   PPLUPT,CPPLUPT      /ADD. OF UPT
         MVC   PPLECT,CPPLECT      /ADD. OF ECT
         LA    R4,ECB
         ST    R4,PPLECB           /ADD. OF ECB
         LA    R4,ANS
         ST    R4,PPLANS           /ADD. OF ANSWER (FOR PARSE TO FILL)
         MVC   PPLPCL,=A(PARSE)    /ADD. OF PCL
         ST    R13,PPLUWA          /ADD. OF UWA (ADD. OF WORK AREA)
         LA    R1,PPLUPT           /ADD. OF PARAMETER LIST
         LINK  EP=IKJPARS
         LTR   R15,R15             /TEST RETURN CODE
         BNZ   PARSFAIL            /SQUAWK AND EXIT
         STITL 'PARAMETER CONSTRUCTION AND ALLOCATIONS'
         L     R10,ANS             /ADD. OF PDL
         USING IKJPARMD,R10
         SPACE 5
*
***>  PARAMETER EXAMINATION AND CONSTRUCTION OF STRING TO BE PASSED TO
*    "NSCRIPT" .
*
*   THE FORMAT FOR THE PARAMETERS PASSED TO "NSCRIPT" ARE AS FOLLOWS :
*
*    R1 -->|00| P T R| ---> |LENGTH|STRING.........|
*          |80| P T R| ---> |# OF ENTRIES|
*                           |DDNAME|REPLACEMENT|
*                             ............
*                           |DDNAME|REPLACEMENT|
*
*   "00" AND "80" ARE BYTES , EACH "PTR" IS 3 BYTES LONG , ENTRIES IS
* HALFWORD AND DDNAMES AND THEIR REPLACEMENTS ARE 8 BYTES LONG PADDED
* WITH BLANKS IN THE RIGHT .
*
         EJECT
         MVC   ALII(ALIEND-ALICONS),ALICONS     /CONSTANT DDNAMES
         SPACE 1
*
*
***>   ALLOCATE DATA SET(S) TO BE FORMATTED
*
*
         SPACE 2
         LA    R6,DSN                  ALLOC DSN BY DEFAULTA     BASTNJ
         ST    R6,DFLTPDE                                        BASTNJ
         MVC   DFLTDESC,=CL8'SYSIN'                              BASTNJ
         MVC   DFLTMEM,=CL8'TEMPNAME'                            BASTNJ
         LA    R6,CPPL                                           BASTNJ
         ST    R6,DFLTCPPL                                       BASTNJ
         MVI   DFLTFLG1,ZERO                                     BASTNJ
         MVI   DFLTFLG2,DFLTSHR                                  BASTNJ
         MVI   DFLTFLG3,DFLTKEEP                                 BASTNJ
         MVI   DFLTFLG4,DFLTKEEP                                 BASTNJ
         LA    R6,QLINLEN                                        BASTNJ
         ST    R6,DFLTQUAL                                       BASTNJ
         LA    R6,PRNTLEN                                        BASTNJ
         ST    R6,DFLTANSW                                       BASTNJ
         LA    R6,NWDSBLK                                        BASTNJ
         ST    R6,DFLTDCB                                        BASTNJ
         MVI   PRNTLEN+1,PRNTDSNL-PRNTLEN                        BASTNJ
         LA    R6,DSN                                            BASTNJ
         USING DSNDSECT,R6                                       BASTNJ
         LINK  EP=DEFAULTA,MF=(E,DFLTPDE)                        BASTNJ
         LTR   R15,R15                                           BASTNJ
         BZ    STDDNSYS                                          BASTNJ
         CH    R15,=H'40'                                        BASTNJ
         BH    BADRC                                             BASTNJ
         B     ERROR(R15)                                        BASTNJ
         SPACE 3
***> KEEP DDNAME
         SPACE 1
STDDNSYS MVC   SYSIN+8(8),PRNTDDN                                BASTNJ
         MVC   SYSIN+16(2),PRNT#DD                               BASTNJ
         SPACE 1
         MVI   PRNTLEN,ZERO                                      BASTNJ
         MVC   PRNTLEN+1(57),PRNTLEN                             BASTNJ
         SPACE 2
*
***>  ALLOCATE "LIB" DATA SETS AND CONCATENATE THEM IF NECESSARY
*
         SPACE 1
         CLI   LIB+1,1               /CHECK IF "NOLIB" SPECIFIED
         BNE   SYSCON                /"NOLIB" SPECIFIED
         SPACE 1
         MVC   DFLTDESC,=CL8'SYSLIB'                             BASTNJ
         MVC   DFLTMEM,=CL8' '                                   BASTNJ
         LA    R6,CPPL                                           BASTNJ
         ST    R6,DFLTCPPL                                       BASTNJ
         MVI   DFLTFLG1,ZERO                                     BASTNJ
         MVI   DFLTFLG2,DFLTSHR                                  BASTNJ
         MVI   DFLTFLG3,DFLTKEEP                                 BASTNJ
         MVI   DFLTFLG4,DFLTKEEP                                 BASTNJ
         LA    R6,QLINLEN                                        BASTNJ
         ST    R6,DFLTQUAL                                       BASTNJ
         LA    R6,PRNTLEN                                        BASTNJ
         ST    R6,DFLTANSW                                       BASTNJ
         LA    R6,NWDSBLK                                        BASTNJ
         ST    R6,DFLTDCB                                        BASTNJ
         MVI   PRNTLEN+1,PRNTDSNL-PRNTLEN                        BASTNJ
         LA    R6,LIBPDE                                         BASTNJ
         ST    R6,DFLTPDE                                        BASTNJ
         USING DSNDSECT,R6                                       BASTNJ
         LINK  EP=DEFAULTA,MF=(E,DFLTPDE)                        BASTNJ
         LTR   R15,R15                                           BASTNJ
         BZ    STDDNLIB                                          BASTNJ
         CH    R15,=H'40'                                        BASTNJ
         BH    BADRC                                             BASTNJ
         B     ERROR(R15)                                        BASTNJ
         SPACE 2                                                 BASTNJ
STDDNLIB MVC   SYSLIB+8(8),PRNTDDN                               BASTNJ
         MVC   SYSLIB+16(2),PRNT#DD                              BASTNJ
         MVI   PRNTLEN,ZERO                                      BASTNJ
         MVC   PRNTLEN+1(57),PRNTLEN                             BASTNJ
         SPACE 1
***>  SIGNAL 5 DDNAMES FOR "NSCRIPT"
         SPACE 1
         MVI   ALII+1,(ALIEND-ALICONS)/16
         SPACE 2
*
***> ALLOCATE SYSTERM AND SYSCONS TO THE TERMINAL
         MNOTE 4,'CHANGE TO MAKE SYSCONS AND SYSTERM PARAMETERS'
*
         SPACE 1
SYSCON   MVC   DFLTDESC,=CL8'SYSCONS'                            BASTNJ
         MVC   DFLTMEM,=CL8' '                                   BASTNJ
         LA    R6,CPPL                                           BASTNJ
         ST    R6,DFLTCPPL                                       BASTNJ
         MVI   DFLTFLG1,ZERO                                     BASTNJ
         MVI   DFLTFLG2,DFLTSHR                                  BASTNJ
         MVI   DFLTFLG3,DFLTKEEP                                 BASTNJ
         MVI   DFLTFLG4,DFLTKEEP                                 BASTNJ
         LA    R6,QLINLEN                                        BASTNJ
         ST    R6,DFLTQUAL                                       BASTNJ
         LA    R6,PRNTLEN                                        BASTNJ
         ST    R6,DFLTANSW                                       BASTNJ
         LA    R6,NWDSBLK                                        BASTNJ
         ST    R6,DFLTDCB                                        BASTNJ
         MVI   PRNTLEN+1,PRNTDSNL-PRNTLEN                        BASTNJ
         LA    R6,CONPDE                                         BASTNJ
         ST    R6,DFLTPDE                                        BASTNJ
         USING DSNDSECT,R6                                       BASTNJ
         LINK  EP=DEFAULTA,MF=(E,DFLTPDE)                        BASTNJ
         LTR   R15,R15                                           BASTNJ
         BZ    STDDNCON                                          BASTNJ
         CH    R15,=H'40'                                        BASTNJ
         BH    BADRC                                             BASTNJ
         B     ERROR(R15)                                        BASTNJ
         SPACE 2                                                 BASTNJ
STDDNCON MVC   SYSCONS+8(8),PRNTDDN                              BASTNJ
         MVC   SYSCONS+16(2),PRNT#DD                             BASTNJ
         MVI   PRNTLEN,ZERO                                      BASTNJ
         MVC   PRNTLEN+1(57),PRNTLEN                             BASTNJ
         SPACE 2
*              ALLOCATE SYSTERM VIA DEFAULTA
         LA    R6,MSGPDE                SET ADDRESSABILITY TO SYSTERM
         ST    R6,DFLTPDE               SET SYSTERM PDE FOR DEFAULTA
         USING DSNDSECT,R6
         MVC   DFLTDESC,=CL8'MESSAGE'
         MVI   DFLTFLG1,DFLTPS+DFLTNEWK
         MVI   DFLTFLG2,DFLTOLD
         MVI   DFLTFLG3,DFLTKEEP
         MVI   DFLTFLG4,DFLTKEEP
         LA    R0,QLPRLEN
         ST    R0,DFLTQUAL
         LA    R0,PRNTLEN
         ST    R0,DFLTANSW
         LA    R0,NWDSBLK
         ST    R0,DFLTDCB
         MVI   PRNTLEN+1,PRNTDSNL-PRNTLEN
         MVC   NWDSBLK(16),=A(1680,7,7,5)
         TM    DSNFLG2,PRESENT
         BO    *+10
         MVC   NWDSPQTY(12),=A(1,1,0)
         MVI   NWDSFLG1,NWDSABL
         MVI   NWDSFLG2,NWDSPS
         LINK  EP=DEFAULTA,MF=(E,DFLTPDE)
         CH    R15,=H'40'
         BH    BADRC
         B     *+4(R15)           /ANALYSE RETURN CODE IF VALID
         B     STDDNTRM            00 OK - SET DDN FOR SYSTERM
ERROR    EQU   *-4                                               BASTNJ
         B     BADEND              04 DAIR ERROR
         B     BADRC               08 ANSWER AREA TOO SHORT
         B     BADRC               0C NO MATCH FOUND
         B     BADEND              10 PO/PS CHECK FAILED
         B     BADRC               14 INVALID ANSWER AREA
         B     BADEND              18 LOCATE OR OBTAIN ERROR
         B     BADRC               1C NO DCB FOR NEW DATA SET
         B     BADRC               20 PUTLINE ERROR
         B     BADRC               24 PUTGET ERROR
         B     BADEND              28 CATALOG ERROR
BADRC    DC    H'0'               /FORCE PROGRAM CHECH IF INVALID RC
BADEND   LA    R4,12
         B     SOF
         SPACE 1
STDDNTRM MVC   SYSTERM+8(8),PRNTDDN
         MVC   SYSTERM+16(2),PRNT#DD                             BASTNJ
         SPACE 3
***> ALLOCATION OF "SYSPRINT" (OUTPUT) FILE
         SPACE 1
         MVC   DFLTDESC,=CL8'PRINT'
         LA    R6,PRINTT1               SET ADDRESSABILITY FOR SYSPRINT
         ST    R6,DFLTPDE               SET SYSPRINT PDE FOR DEFAULTA
         USING DSNDSECT,R6
         MVC   NWDSPQTY(12),=A(21,21,5)
         TM    DSNFLG2,PRESENT
         BO    *+10
         MVC   NWDSPQTY(12),=A(7,7,0)
         MVI   PRNT#DD+1,0
         LA    R6,PRINTT1
         ST    R6,DFLTPDE
         USING DSNDSECT,R6
         LINK  EP=DEFAULTA,MF=(E,DFLTPDE)
         LTR   R15,R15                                           BASTNJ
         BZ    STDDNPRT                                          BASTNJ
         CH    R15,=H'40'
         BH    BADRC
         B     ERROR(R15)                                        BASTNJ
         SPACE 1
STDDNPRT MVC   SYSPRINT+8(8),PRNTDDN
         MVC   SYSPRINT+16(2),PRNT#DD                            BASTNJ
         SPACE 2                                                 BASTNJ
         STITL 'CALLING SEQUENCE'
**> CALL PARAMETER BUILDING ROUTINE .
         SPACE 1
         L     R15,=A(BUILDPRM) /ADD. OF ROUTINE
         BALR  R14,R15       /BRANCH TO ROUTINE
         SPACE 3
*
***>  PUT SECOND PART OF PARAMETER LIST IN PLACE
*
         MVC   ALIIDUM,ALII                                      BASTNJ
         MVC   SYSIN1,SYSIN                                      BASTNJ
         MVC   SYSTR1,SYSTERM                                    BASTNJ
         MVC   SYSCO1,SYSCONS                                    BASTNJ
         MVC   SYSPR1,SYSPRINT                                   BASTNJ
         MVC   SYSLI1,SYSLIB                                     BASTNJ
         LA    R7,ALIIDUM                                        BASTNJ
         ST    R7,PRMSCR+4
         MVI   PRMSCR+4,X'80'     FLAG AS LAST PARAMETER IN LIST
         SPACE 2
*
***>  SET UP "STAX" IN CASE OF ATTENTION
*
         SPACE 1
         LA    R6,STXLST       /ADD. OF LIST FORM
         L     R4,=A(ATTEN)    /ADD. OF ATTENTION HANDLING ROUTINE
         STAX  (R4),MF=(E,(R6)),IBUF=(ATTIN,1),OBUF=(ATTOUT,L'ATTOUT), X
               USADDR=TCBAD
         SPACE 2
*
***> CALL "NSCRIPT"
*
         SPACE 1
         MVI   ATTIN,ATT#C       /SIGNAL NORMAL END
         LA    R1,PRMSCR         /ADD. OF PARM. LIST
         LA    R2,ABENDC         /ADD. OF ABEND CODES BUFFER
         MVC   ABENDC(3),BLANKS8 /BLANK BUFFER
         L     R4,=A(STAEROUT)   /ADD. OF STAE EXIT ROUTINE
         XC    ECB,ECB
         LA    R6,ECB        /PTR. TO ECB
         ATTACH EP=SCRIPTW,ECB=(R6),SF=(E,LATT),STAI=((R4),(R2)),      *
               PURGE=HALT,ASYNCH=YES,SZERO=NO
         SPACE 1
         ST    R1,TCBAD      /KEEP TCB ADD.
         WAIT  ECB=ECB
         SPACE 1
         CLC   ABENDC(3),BLANKS8      /SEE IF "NSCRIPT" ABENDED
         BNE   NSCABND                /ABEND OCURRED
         SPACE 1
         CLI   ATTIN,ATT#C   /EXITED NORMALLY ?
         BNE   ABEXIT        /ABNORMAL EXIT FROM SUBTASK
         SPACE 1
         LAT   R15,ECB,,NSCRERR,LA=0    IS SCRIPTW RC NON-ZERO ?  *TSM*
         SPACE 1
DTCH     EQU   *
         SPACE 1
         DETACH TCBAD
         SPACE 1
         B     DONEFREE
         STITL 'EPILOG '
*
***>  FREE DATA SETS
*
         SPACE 1
DONEFREE LH    R5,ALII                                           BASTNJ
         SH    R5,=H'1'                                          BASTNJ
         M     R4,=F'18'                                         BASTNJ
         LA    R3,SYSIN+8                                        BASTNJ
         LA    R5,0(R3,R5)                                       BASTNJ
         LA    R4,18                                             BASTNJ
LOOP1    LH    R6,8(,R3)                                         BASTNJ
         LTR   R6,R6                                             BASTNJ
         BZ    NODATAST                                          BASTNJ
         CH    R6,=H'1'                                          BASTNJ
         BE    FREEDAIR                                          BASTNJ
         BAL   R7,DECONCAT                                       BASTNJ
         SPACE 2                                                 BASTNJ
FREEDAIR DS    0H                                                BASTNJ
         MVC   DA18CD(DA18END-DA18CONS),DA18CONS                 BASTNJ
         LA    R8,DA18CD                                         BASTNJ
         ST    R8,DAPLDAPB                                       BASTNJ
         SPACE 2                                                 BASTNJ
FREEIT   DS    0H                                                BASTNJ
         MVC   DA18DDN,0(R3)                                     BASTNJ
         LINK  EP=IKJDAIR,MF=(E,DAPLUPT)                         BASTNJ
         LTR   R15,R15                                           BASTNJ
         BNZ   ERRANAL                                           BASTNJ
         BCT   R6,FREEAGAN                                       BASTNJ
         SPACE 2                                                 BASTNJ
NODATAST DS    0H                                                BASTNJ
         BXLE  R3,R4,LOOP1                                       BASTNJ
         SPACE 1
*
***>  FREE PARAMETER AREA
*
         SPACE 1
         L     R1,PRMSCR       /ADD. OF AREA
         LH    R3,EQUS+4
         LA    R0,MAXLEN(R3)   /LENGTH OF AREA
         SVC   10              /ISSUE FREEMAIN SVC
         SPACE 3
SOF      ENDM  RC=(R4)
         SPACE 2                                                 BASTNJ
FREEAGAN DS    0H                                                BASTNJ
         SR    R7,R7                                             BASTNJ
         ST    R7,DBLWD                                          BASTNJ
         ST    R7,DBLWD+4                                        BASTNJ
         LH    R7,6(,R3)                                         BASTNJ
         ST    R7,DBLWD+4                                        BASTNJ
         PACK  DBLWD,DBLWD                                       BASTNJ
         CVB   R7,DBLWD                                          BASTNJ
         LA    R7,1(,R7)                                         BASTNJ
         CVD   R7,DBLWD                                          BASTNJ
         UNPK  6(2,R3),DBLWD+6(2)                                BASTNJ
         OI    7(R3),X'F0'                                       BASTNJ
         B     FREEIT                                            BASTNJ
         SPACE 2                                                 BASTNJ
DECONCAT DS    0H                                                BASTNJ
         MVC   DA10CD(DA10END-DA10CONS),DA10CONS                 BASTNJ
         MVC   DA10DDN,0(R3)                                     BASTNJ
         LA    R8,DA10CD                                         BASTNJ
         ST    R8,DAPLDAPB                                       BASTNJ
         LINK  EP=IKJDAIR,MF=(E,DAPLUPT)                         BASTNJ
         LTR   R15,R15                                           BASTNJ
         BNZ   ERRANAL                                           BASTNJ
         BR    R7                                                BASTNJ
         SPACE 3                                                 BASTNJ
         STITL 'ERROR AND DIAGNOSTIC ROUTINES'
***> ERROR IN "NSCRIPT"
         SPACE 1
NSCRERR  LA    R4,12                    RETURN CODE FOR CLISTS    *TSM*
         LA    R2,ER10     /ADD. OF MESSAGE
         LA    R0,ER11-ER10  /LENGTH OF MESSAGE
         B     MESSAGE     /TPUT AND ABORT
         SPACE 3
*
**>  "NSCRIPT" ABENDED
*
         SPACE 1
NSCABND  MVC   ABNDMSG(45),ER18      /MOVE TEMPLATE OF MESSAGE
         SPACE 1
*  USER CODE
         ICM   R2,3,ABENDC+1         /LOAD CODE (+)
         LA    R3,4095
         NR    R2,R3                 /ELIMINATE GARBAGE
         CVD   R2,DWORK
         OI    DWORK+7,COMPF        /PUT "F" IN LOWEST HALF BYTE
         UNPK  ABNDMSG+41(4),DWORK+5(3)
         SPACE 1
*  SYSTEM CODE
         UNPK  DWORK(5),ABENDC(3)   /UNPACK CODE + BYTE
         MVC   ABNDMSG+28(3),DWORK  /MOVE RELEVANT PART
         TR    ABNDMSG+28(3),HEXTRTAB /TRANSLATE HEX. CODES
         LA    R2,ABNDMSG            /ADD. OF MESSAGE
         LA    R0,45                 /LENGTH OF MESSAGE
         SPACE 1
         TPUT  (R2),(0)
         SPACE 1
         B     DONEFREE             /FREE AND EXIT
         SPACE 3
*
***>  SUBTASK ABNORMALLY TERMINATED BY ATTENTION
*
         SPACE 1
ABEXIT   EQU   *
         CLI   ATTIN,ATT#F        /FREE REQUESTED ?
         BE    DONEFREE
         SPACE 1
*  "ABEND" WAS REQUESTED
         LA    R4,12              /SIGNAL ABENDED                 *TSM*
         B     SOF
         SPACE 3
PARSFAIL LR    R4,R15             /ERROR CODE
         LA    R2,ER9           /ERROR MESSAGE
         LA    R0,ER10-ER9      /LENGTH OF MESSAGE
         SPACE 3
MESSAGE  TPUT  (R2),(0)
         B     SOF
         SPACE 3
         EJECT
*
***>  ERROR ANALYSIS FOR DAIR USING DAIRFAIL(IKJEFF18)
*
         SPACE 2
ERRANAL  EQU   *
         ST    R15,DAIRRC       /STORE R.C.
         CVD   R15,DBLWD                                         BASTNJ
         ED    REG15+1(5),DBLWD+5                                BASTNJ
         L     R15,DAPLDAPB                                      BASTNJ
         LH    R15,4(,R15)                                       BASTNJ
         CVD   R15,DBLWD                                         BASTNJ
         ED    CODEDAIR+1(5),DBLWD+5                             BASTNJ
         LA    R1,TPUTLINE                                       BASTNJ
         LA    R0,TPUTLINL                                       BASTNJ
         TPUT  (R1),(R0),R                                       BASTNJ
         L     R4,DAIRRC        /RETURN CODE FROM THE PROGRAM
         B     SOF             /EXIT
         SPACE 2                                                 BASTNJ
TPUTLINE DC    C' DAIR ERROR CODE '                              BASTNJ
CODEDAIR DC    X'402020202020'                                   BASTNJ
         DC    C' REG. 15 = '                                    BASTNJ
REG15    DC    X'402020202020'                                   BASTNJ
TPUTLINL EQU   *-TPUTLINE                                        BASTNJ
DBLWD    DS    D                                                 BASTNJ
         EJECT
         LTORG
         STITL 'VALIDITY CHECK ROUTINES (VDCHECK CSECT)'
VDCHECK  CSECT    ,     /CSECT FOR VALIDITY CHECK AND STAX/STAE .
         USING VDCHECK,R11
*
***> VALIDITY CHECK ROUTINE FOR "EQUALITIES" .
*
         USING VALPAR,R1          /ADDRESSABILITY FOR PARAM. LIST
EQUSCK   EQU   *
*
***>   VALIDITY CHECK ROUTINE FOR STRINGS OF THE FORM :
*              +A=B  OR  &A=B
*
         STM   R14,R12,12(R13)
         USING EQUSCK,R15
         L     R12,=A(SCR)
         L     R11,=A(VDCHECK)      /ADD. OF START
         DROP  R15
         LR    R15,R13
         L     R13,USERWORD
         ST    R15,KEEPR
         L     R10,PDEADR
         USING QST,R10           /ADDRESSABILITY FOR PDE
         LH    R9,QSTLNGT        /LOAD LENGTH OF STRING
         BCTR  R9,0              /LENGTH-1
         L     R8,QSTSTRP        /START OF STRING
         DROP  R10
         LR    R4,R8
         AR    R4,R9            /END OF STRING ADD.
         XR    R2,R2
         EX    R9,TRTSR          /LOOK FOR NEXT DELIMITER
         SPACE 2
         B     BTAB1(R2)         /BRANCH WITH CODE RETURNED
BTAB1    B     INV               /INVALID (NULL?)
         B     FOP               / + OR & FOUND => START
         SPACE 2
INV      EQU   *
*
***>   INVALID PARAMETER(S) ENTERED
*
*  ERROR MESSAGE
         LA    R2,ER1
         LA    R0,L'ER1
         B     ERRTPUT
         SPACE 2
FOP      EQU   *
*
***>   FIRST OPERAND START (+ OR &)
*
         LR    R7,R1             /ADD. OF + OR &
         SR    R7,R8             /LENGTH OF STRING PARSED (-1)
FOP1     LA    R7,1(,R7)
         SR    R9,R7              /LENGTH REMAINING (-1)
         LA    R8,1(R1)           /START ADD. FOR NEXT TRT
         XR    R2,R2
         EX    R9,TRTSR           /LOOK FOR "="
         B     BTAB2(R2)
         SPACE 2
BTAB2    B     INV                /NOTHING FOUND
         B     INV                /NO "=" FOUND
*
***>  EQUAL SIGN
*
         LR    R7,R1
         SR    R7,R8            /LENGTH OF PARAMETER (IDENTIFIER)
         BNP   INV              /INVALID IF NO IDENTIFIER
         LA    R7,1(,R7)        /LENGTH PARSED
         LA    R8,1(R1)         /NEXT START ADD. FOR TRT
         XR    R2,R2
         SR    R9,R7            /LENGTH OF STRING TO BE PARSED
         EX    R9,TRTSR
         B     BTAB3(R2)
         SPACE 2
BTAB3    B     GOOD            /END OF STRING ??
         B     NEXTEQ          /NEXT EQUALITY
         B     INV             /INVALID ("=" AFTER "=")
         SPACE 2
GOOD     EQU   *
         SR    R4,R1           /LENGTH OF  VALUE
         BNP   INV             /NULL VALUE
         B     RC0             /RETURN
         SPACE 1
NEXTEQ   EQU   *
*
***>  NEXT PARAMETER-VALUE PAIR
*
         LR    R7,R1
         SR    R7,R8          /LENGTH OF VALUE
         BNP   INV            /NULL VALUE
         B     FOP1           /GO AGAIN TO FIND "="
         SPACE 1
TRTSR    TRT   0(0,R8),SYMBTR  TRT ON QSTRING TO FIND '&&"|'+'|'='
         SPACE 3
RC0      XR    R15,R15
         B     RET
         SPACE 2
ERRTPUT  TPUT  (R2),(0)
         SPACE 1
RC8      LA    R15,8
         B     RET
         SPACE 3
         PUSH  PRINT
         PRINT NOGEN
         SPACE 1
BMCK     RANGE 0,033,BMARGIN
         SPACE 1
CENTCK   RANGE 0,030,ADJUST
         SPACE 1
CHANCK   RANGE 1,009,CHANNEL
         SPACE 1
DOWNCK   RANGE 1,130,DOWN
         SPACE 1
FMCK     RANGE 0,033,FMARGIN
         SPACE 1
FNSCK    RANGE 1,1024,FNSIZE
         SPACE 1
HMCK     RANGE 0,033,HMARGIN
         SPACE 1
LINUMCK  RANGE 1,125,LINUMBER
         SPACE 1
LLENGCK  RANGE 10,120,LLENGTH
         SPACE 1
NUMBCK   RANGE 1,100,NUMBER
         SPACE 1
PAGECK   RANGE 1,32767,PAGE
         SPACE 1
PASSCK   RANGE 1,010,PASSES
         SPACE 1
PLENGTCK RANGE 33,132,PLENGTH
         SPACE 1
REVCK    RANGE 1,144,REVERSE
         SPACE 1
RMSIZECK RANGE 1,255,RMSIZE
         SPACE 1
SEQCCK   RANGE 0,240,SEQCOLUMN
         SPACE 1
SREFCK   RANGE 1,4096,SREFERENCE
         SPACE 1
SRLCK    RANGE 4,240,SRLENGTH
         SPACE 1
TMCK     RANGE 0,033,TMARGIN
         SPACE 1
         POP   PRINT
         SPACE 3
*
*             R6   =>AL1(MINIMUM),AL3(MAXIMUM)
*             R14+4=>AL1(L'NAME),C'NAME'
*
         PUSH  USING
         DROP
         USING VALPAR,R1
NUMKEYCK BALR  R2,0                      ALLOW FOR MULTIPLE ENTRIES
         USING *,2
         LM    R11,R12,=A(VDCHECK,SCR)
         USING VDCHECK,R11
         USING SCR,R12
         DROP  R2
         LM    R9,R10,PDEADR
         USING QST,R9
         USING PPL,R10
         L     R7,QSTSTRP
         LH    R8,QSTLNGT
         BCTR  R8,0
         LA    R4,0(R7,R8)
         XR    R2,R2                    0=NUMERIC 4=INVALID 8='K'
         EX    R8,NUMBTRT
         BZ    NOTNNK
         BM    NOTNUM
         B     *(R2)                    WHAT IS FUNCTION BYTE?
         B     NOTNUM                   4 - NON-NUMERIC
         SH    R8,=H'1'                 8 - 'K'
         BM    NOTNUM
NOTNNK   EX    R8,NUMBPACK
         CVB   R0,DWORK
         CLI   0(R4),C'K'
         BNE   *+8
         SLA   R0,10
         ST    R0,DWORK
         SR    R0,R0
         IC    R0,0(R6)
         C     R0,DWORK
         BH    TOOSMALL
         CLC   1(3,R6),DWORK+1
         BL    TOOLARGE
         XR    R15,R15
         B     VALID
         SPACE 1
NOTNUM   LA    R0,L'ERRNUM
         LA    R1,ERRNUM
         B     NOTVALID
         SPACE 1
TOOSMALL LA    R0,L'ERRSMALL
         LA    R1,ERRSMALL
         B     NOTVALID
         SPACE 1
TOOLARGE LA    R0,L'ERRLARGE
         LA    R1,ERRLARGE
*        B     NOTVALID
         SPACE 1
NOTVALID TPUT  (1),(0)
         LA    R15,8
         SPACE 1
         PRINT GEN
VALID   RETURN (14,12),T,RC=(15)
         PRINT NOGEN
         SPACE 1