         MACRO
&NAME    ALCRETDD &RETDD=
.*---------------------------------------------------------------------
.*       THIS MACRO IS CALLED BY THE 'SPFALLOC' MACRO TO PROCESS THE
.*       'RETDD' KEYWORD
.*
.*       RETDD=NAME             NAME  DC  CL8' '
.*
.*       MAY, 1982 - CREATED
.*---------------------------------------------------------------------
         LCLA  &X
         LCLC  &LIT
&X       SETA  &SYSNDX
&NAME    DS    0H
*----------------------------------------------------------------------
*        RETURN THE DDNAME ALLOCATED
*----------------------------------------------------------------------
         STCM  R14,15,S99TUPTR    TEXT UNIT POINTER
         LA    R1,DALRTDDN        KEY FOR RETURN DDNAME
         STCM  R1,3,S99TUKEY      PUT IN TEXT UNIT KEY FIELD
         MVC   S99TUNUM,=H'1'     MOVE 1 TO TXT UNIT NUMBR FLD
         MVC   S99TULNG,=H'8'     MOVE 8 TO TXT UNIT LNGTH FLD
         MVC   S99TUPAR(8),=8C' '  INITIALIZE TO BLANKS
         LA    R5,S99TUPAR        SAVE THIS ADDR FOR LATER
         LA    R14,14(R14)        BUMP TO NEXT TEXT UNIT
         LA    R15,4(R15)         BUMP TO NEXT TXT UNIT PTR
         MEND
