         MACRO
&NAME    ALCUNAL
.*---------------------------------------------------------------------
.*       THIS MACRO IS CALLED BY THE 'SPFALLOC' MACRO FOR ALL
.*       DE-ALLOCATION REQUESTS.
.*
.*       MAY, 1982 - CREATED
.*---------------------------------------------------------------------
*----------------------------------------------------------------------
*        UNALLOCATE EVEN IF PERM ATTRIBUTE IS ON
*----------------------------------------------------------------------
         STCM  R14,15,S99TUPTR    TEXT UNIT POINTER
         LA    R1,DUNUNALC        KEY FOR UNALC
         STCM  R1,3,S99TUKEY      PUT IN TEXT UNIT KEY FIELD
         MVC   S99TUNUM,=H'0'     MOVE 0 TO TXT UNIT NUMBR FLD
         LA    R14,4(R14)          BUMP TO NEXT TXT UNIT
         LA    R15,4(R15)          BUMP TO NEXT TXT UNIT PTR
         MEND
