         MACRO
&NAME    SPFCMDS &TABLES=NO,&FILES=NO,&PRINT=NO,&DCBD=PS,&DSCB1=SEARCH,+
               &ENQDEQ=Y,&DSCB=YES
.*---------------------------------------------------------------------
.*       THIS MACRO GENERATES CONSTANTS AND WORKAREAS USED BY SPF
.*       SERVICES AND THE 'SPF.....' MACROS.
.*
.*       MAY, 1982 - CREATED
.*---------------------------------------------------------------------
         LTORG
         AIF   ('&ENQDEQ' EQ 'ONLY').ED1
&NAME    DS    0D
SPFA     EQU   *
*        DISPLAY SERVICES
DISPLAY  DC    CL8'DISPLAY'
TBDISPL  DC    CL8'TBDISPL'
         AIF   ('&TABLES' EQ 'NO').NT
*        TABLE SERVICES - GENERAL
TBCREATE DC    CL8'TBCREATE'
TBOPEN   DC    CL8'TBOPEN'
TBQUERY  DC    CL8'TBQUERY'
TBSAVE   DC    CL8'TBSAVE'
TBCLOSE  DC    CL8'TBCLOSE'
TBEND    DC    CL8'TBEND'
TBERASE  DC    CL8'TBERASE'
*        TABLE SERVICES - ROW OPERATIONS
TBADD    DC    CL8'TBADD'
TBDELETE DC    CL8'TBDELETE'
TBGET    DC    CL8'TBGET'
TBPUT    DC    CL8'TBPUT'
TBMOD    DC    CL8'TBMOD'
TBEXIST  DC    CL8'TBEXIST'
TBSCAN   DC    CL8'TBSCAN'
TBSARG   DC    CL8'TBSARG'
TBTOP    DC    CL8'TBTOP'
TBBOTTOM DC    CL8'TBBOTTOM'
TBSKIP   DC    CL8'TBSKIP'
TBVCLEAR DC    CL8'TBVCLEAR'
.NT      ANOP
         AIF   ('&FILES' EQ 'NO').NF
*        FILE TAILORING SERVICES
FTOPEN   DC    CL8'FTOPEN'
FTINCL   DC    CL8'FTINCL'
FTCLOSE  DC    CL8'FTCLOSE'
FTERASE  DC    CL8'FTERASE'
.NF      ANOP
         DS    0H
*        VARIABLE SERVICES
VGET     DC    CL8'VGET'
VPUT     DC    CL8'VPUT'
VDEFINE  DC    CL8'VDEFINE'
VDELETE  DC    CL8'VDELETE'
VCOPY    DC    CL8'VCOPY'
VREPLACE DC    CL8'VREPLACE'
VRESET   DC    CL8'VRESET'
*        OTHER SERVICES
SELECT   DC    CL8'SELECT'
CONTROL  DC    CL8'CONTROL'
BROWSE   DC    CL8'BROWSE'
EDIT     DC    CL8'EDIT'
LOG      DC    CL8'LOG'
*        FUNCTIONS/MODES
ASIS     DC    CL8'ASIS'
CANCEL   DC    CL8'CANCEL'
DISABLE  DC    CL8'DISABLE'
ENABLE   DC    CL8'ENABLE'
END      DC    CL8'END'
ENTER    DC    CL8'ENTER'
ERRORS   DC    CL8'ERRORS'
LINE     DC    CL8'LINE'
LOCATE   DC    CL8'LOCATE'
MOVE     DC    CL8'MOVE'
NEWCOPY  DC    CL8'NEWCOPY'
NOFT     DC    CL8'NOFT'
NONDISPL DC    CL8'NONDISPL'
NOWRITE  DC    CL8'NOWRITE'
PROFILE  DC    CL8'PROFILE'
REFRESH  DC    CL8'REFRESH'
REPLACE  DC    CL8'REPLACE'
REPLCOPY DC    CL8'REPLCOPY'
RETURN   DC    CL8'RETURN'
SHARED   DC    CL8'SHARED'
SPLIT    DC    CL8'SPLIT'
SM       DC    CL8'SM'
TEMP     DC    CL8'TEMP'
WRITE    DC    CL8'WRITE'
*        FORMATS
CHAR     DC    CL8'CHAR'
FIXED    DC    CL8'FIXED'
BIT      DC    CL8'BIT'
HEX      DC    CL8'HEX'
*
*        PRE-DEFINED FIELDS FOR CALLS TO ISPLINK
*
PANEL    DC    CL8' '
PROC     DC    CL8' '
MSG      DC    CL8' '
CURSOR   DC    CL8' '
*----------------------------------------------------------------------
*        WORK AREAS USED BY OTHER SPF MACROS
*----------------------------------------------------------------------
         AIF   ('&PRINT' EQ 'YES').GEN
         PUSH  PRINT
         PRINT NOGEN
.GEN     ANOP
SPFDBWRD DC    D'0'           WORK AREA
SPFRC    DC    F'0'           WORK AREA
.ED1     ANOP
SPFEDIT  DC    CL8'SPFEDIT'   QNAME FOR SPF ENQ/DEQ
SPFDSN   DC    CL8'SPFDSN'    QNAME FOR SPF ENQ/DEQ
         AIF   ('&ENQDEQ' EQ 'ONLY').ED2
         AIF   ('&DSCB' EQ 'NO').ED3
*----------------------------------------------------------------------
SPFDSCB  DS    0D
         AIF   ('&DSCB1' EQ 'SEEK').SEEK1
         ORG   SPFDSCB-44         LINE UP IECSDSL1 MACRO WITH THE AREA
.SEEK1   ANOP
         IECSDSL1 (1)
         AIF   ('&DSCB1' EQ 'SEEK').SEEK2
         ORG   IECSDSL1+44
.SEEK2   ANOP
SPFDSCBX DC    XL256'00'          FIRST 256 BYTES OF DSCB AREA
SPFDSCBY DC    XL9'00'            LAST 9 BYTES OF DSCB AREA
*----------------------------------------------------------------------
SPFBLIST DS    0F                 BLDL LIST
         DC    H'1'               1 ENTRY
         DC    H'58'              AREA LENGTH
SPFBMBR  DC    CL8' '             BLDL MEMBER NAME
SPFBAREA DC    XL50'00'           BLDL WORK AREA
SPFBDCB  DCB   DDNAME=X,DSORG=PO,MACRF=R
*----------------------------------------------------------------------
SPFREGS  DC    16F'0'
*----------------------------------------------------------------------
SPFTRT   DC    XL256'00'
*----------------------------------------------------------------------
.ED2     ANOP
BLANKS   DC    CL256' '
         DS    0H
SPFDYNAM DC    2XL256'00'
         AIF   ('&ENQDEQ' EQ 'ONLY').ED3
SPFDYNLL EQU   512
SPFDYN15 DC    F'0'           R15 FROM DYNAMIC ALLOCATION
SPFDYNER DC    F'0'           DYN ERROR FROM S99ERROR
SPFDYNIN DC    F'0'           DYN INFO FROM S99INFO
*----------------------------------------------------------------------
SPFVOL   DC    CL6' '         VOL SER NUMBER
SPFDEVT  DC    XL4'00'        UCBTYPE FIELD
*----------------------------------------------------------------------
SPFB     EQU   *
SPFLEN   EQU   (SPFB-SPFA)
         DCBD  DSORG=&DCBD
         IEFZB4D0
         IEFZB4D2
RBLEN    EQU   (S99RBEND-S99RB)
&SYSECT  CSECT
         AIF   ('&PRINT' EQ 'YES').MEND
         POP   PRINT
.ED3     ANOP
.MEND    ANOP
         MEND
