         MACRO
&NAME    SPFVPUT &FLD,&TYPE
.*---------------------------------------------------------------------
.*       THIS MACRO INVOKES THE SPF VPUT SERVICE.
.*
.*       MAY, 1982 - CREATED
.*---------------------------------------------------------------------
&NAME    DS    0H
         LCLC  &AA
         LCLA  &X,&A,&B,&N,&LL
&X       SETA  &SYSNDX
&N       SETA  N'&FLD
         CALL  ISPLINK,(VPUT,FLD&X,&TYPE),VL
         B     MAAA&X
&B       SETA  1
         AIF   (&N GT 1).BBB
&LL      SETA  K'&FLD(&B)+2
FLD&X    DC    CL&LL'(&FLD(&B))'
         AGO   .DONE
.*---------------------------------------------------------------------
.BBB     ANOP
&LL      SETA  K'&FLD(&B)+2
FLD&X    DC    CL&LL'(&FLD(&B)'
.CCC     ANOP
&B       SETA  &B+1
         AIF   (&B EQ &N).DDD
&LL      SETA  K'&FLD(&B)+1
         DC    CL&LL'&FLD(&B)'
         AGO   .CCC
.DDD     ANOP
&LL      SETA  K'&FLD(&B)+1
         DC    CL&LL'&FLD(&B))'
.DONE    ANOP
MAAA&X   DS    0H
         MEND
