         MACRO
&NAME    ADYN  &ACTION=INFO,                                           +
               &BASE=,                                                 +
               &BLKSIZE=,                                              +
               &BUFNO=,                                                +
               &CCP=YES,                                               +
               &COPIES=,                                               +
               &DATA=,                                                 +
               &DD=,                                                   +
               &DDC=,                                                  +
               &DDR=NO,                                                +
               &DEST=,                                                 +
               &DISP=,                                                 +
               &DSN=,                                                  +
               &DSNR=NO,                                               +
               &DSORG=,                                                +
               &ERROR=,                                                +
               &FCB=,                                                  +
               &HELP=NO,                                               +
               &LIST=YES,                                              +
               &LRECL=,                                                +
               &MEMBER=,                                               +
               &MF=,                                                   +
               &PARMT=PARM,                                            +
               &PDUMP=NO,                                              +
               &PDUMPX=,                                               +
               &PERMA=YES,                                             +
               &RECFM=,                                                +
               &REGR=YES,                                              +
               &REUSE=NO,                                              +
               &RLSE=,                                                 +
               &R1=R1,                                                 +
               &R4=R4,                                                 +
               &R5=R5,                                                 +
               &R6=R6,                                                 +
               &R7=R7,                                                 +
               &SPACE=,                                                +
               &SYSOUT=,                                               +
               &UCLOSE=NO,                                             +
               &UNIT=,                                                 +
               &VOLR=NO,                                               +
               &VOLSER=
*--------------------------START OF ADYN------------------------------*
&NAME    DS    0H
         PUSH  PRINT
         AIF   ('&LIST' NE 'NO').A$XX
         PRINT NOGEN
.A$XX    ANOP
         AIF   ('&HELP' EQ 'YES').A$HELP
*---------------------------------------------------------------------*
* For a more comprehensive description of the 'ADYN' parameters and   *
* use pass parameter 'HELP=YES'.                                      *
*---------------------------------------------------------------------*
         AGO .A$HELPE
.A$HELP  ANOP
***********************************************************************
*                                                                     *
* DYNAMIC ALLOCATION MACRO.      Written by A. Kara.                  *
* -------------------------                                           *
*           N O T E - N O T E - N O T E - N O T E - N O T E           *
*                                                                     *
*   This routine saves and uses the following general registers:      *
*      R1, R4, R5, R6, R7, R14 and R15.                               *
*   If any of these registers are used as base registers or anchors   *
*   for the DSECT containing the DATA format of the macro (if used),  *
*   either substitute with an unused one (refer parameter 'Rn') or do *
*   not use this macro.                                               *
*                                                                     *
*   This macro is only applicable to DASD and cannot be used for      *
*   tapes.                                                            *
*                                                                     *
*---------------------------------------------------------------------*
* Macro to generate code to dynamically Allocate/Info/Delete/         *
*  Unallocate|Free/Deconcatenate/Concatenate/Reallocate               *
*                                                                     *
*   Parameters:                                                       *
*       1. ACTION  - valid actions are:                               *
*                    'Info'    - advise if dataset is allocated.      *
*                                Requires the following minimum       *
*                                parameters:                          *
*                                  DD and DSN.                        *
*                    'Alloc'   - allocate datest (basically pass jcl  *
*                                format parameters).                  *
*                                To reallocate, pass parameter of     *
*                                REUSE=YES.                           *
*                    'Unalloc'/'Free'/'DEConc'                        *
*                              - any one of these command will        *
*                                unallocate the dataset/concatenations*
*                    'DELete'  - delete allocates the DSN with        *
*                                'DISP=(OLD,DELETE,DELETE)' then frees*
*                                it.                                  *
*                    'Conc'    - concatenates the dd name defined on  *
*                                the 'DDC' parameter to the 'DD' parm.*
*                                                                     *
*       2. BASE    - Register to be used as a base register for the   *
*                    SVC 99 DSECT 'S99RBP'. This register must be     *
*                    loaded with the address of the area where the    *
*                    SVC 99 parameter list may be built. Also used to *
*                    invoke the 'DYNALLOC' routine automatically.     *
*                    (Do not enclose in brackets.)                    *
*                    If the base parameter is not passed, the         *
*                    following will need to be explicitly coded:      *
*                    1. Before the invocation of the 'ADYN' macro:    *
*                                                                     *
*                         USING S99RBP,Rn  establish addresability    *
*                                                                     *
*                    2. On return from the macro:                     *
*                                                                     *
*                         LR    R1,Rn  req blk ptr in R1 for dynalloc *
*                                      (both Rn must be same register)*
*                         DYNALLOC                                    *
*                                                                     *
*       3. BLKSIZE - Block size. (Same restrictions as 'LRECL').      *
*                                                                     *
*       4. CCP     - Wheteher to make concatenation permanent.        *
*                    Valid values are YES/NO with YES as default.     *
*                                                                     *
*       5. COPIES  - Number of copies to print (for SYSOUT DD's)      *
*                                                                     *
*       6. DATA    - Valid values are 'VARiable'/'CONstant'/'IBM'.    *
*                    Set up the data fields if you use the parameter  *
*                    'PARMT=DATA' in your program:                    *
*                    Set to 'VARiable' if you want a map of the data  *
*                    fields used for variable parameter passing. This *
*                    is required in your getmained DSECT for re-      *
*                    entrant programs.                                *
*                    You may initialise this area by coding a macro   *
*                    with 'DATA=CONstant' in your constant data area  *
*                    and on the macro pass all the parameters as      *
*                    though you were coding a macro with 'PARMT=PARM' *
*                    and moving it over the variable part. The max    *
*                    length of the data is 123 bytes.  If the program *
*                    is not re-entrant you only need to code the macro*
*                    with the parameter of 'DATA=VARiable'.           *
*                    In all cases supply a macro with 'DATA=IBM' to   *
*                    define the IBM required macros. If this is not   *
*                    defined in your program, you must explicitly     *
*                    define the following ibm macros in your program  *
*                          'IEFZB4D0'                                 *
*                          'IEFZB4D2'                                 *
*                    There should only be 1 macro with DATA=IBM/VAR   *
*                    however you may have as many DATA=CON as you     *
*                    like. DATA=IBM/VAR generate labels while 'CON'   *
*                    does not.                                        *
*                                                                     *
*       7. DD      - DD name to be allocated. In case of a 'Conc'     *
*                    action, concatenate the 'DDC' parm to this.      *
*                    If parameter 'DDR=YES' is used with 'PARMT=PARM' *
*                    this paramater must point to a variable name in  *
*                    the data area.                                   *
*                                    - or -                           *
*                    DD=(varname) if the DDname is to be taken from   *
*                    a variable.                                      *
*                    For DDR=Yes, allign the DD variable on a full-   *
*                    word boundary to eliminate allignament warning   *
*                    assembly messages.                               *
*                                                                     *
*       8. DDC     - DD name to concatenate to DD name with 'Conc'.   *
*                                                                     *
*       9. DDR     - DD name to be returned and placed in the variable*
*                    specified for the 'DD' parameter after an        *
*                    'Alloc' request without a DD parm. Set to either *
*                    YSE/NO ('NO' is the default).                    *
*                    If 'PARMT=DATA' is used, the DD name is returned *
*                    in the variable 'YDD' which would have been      *
*                    defined by the ADYN macro with 'PARMT=VAR'.      *
*      10. DEST    - Printer-id destination with 'SYSOUT'             *
*                                                                     *
*      11. DISP    - Standard JCL type DISP parameter, eg.            *
*                    'DISP=(NEW,CATLG,DELETE)'                        *
*                    (default of 'OLD' for 'Allocate' action.)        *
*                    For new dataset allocation without a 'DSN='      *
*                    but rather a 'DSNR=' parameter, the 2nd. and 3rd.*
*                    disposition parameter will be automatically      *
*                    changed to '(....,DELETE,DELETE)'.               *
*                                                                     *
*      12. DSN     - DSNAME (unquoted of course) or '*' for terminal. *
*                                    - or -                           *
*                    Variable name to return the DSN name in, after an*
*                    'Info' request. (If 'PARMT=DATA' is used the DSN *
*                    will be returned in the variable 'YDSN' which    *
*                    would have been defined by the ADYN macro with   *
*                    'PARMT=VAR'.)                                    *
*                                    - or -                           *
*                    If the action is ALLOC and the dataset name is   *
*                    stored in a variable and PARMT=PARM is required, *
*                    indicate the variable's name by specifying       *
*                    'DSN=(varname)'.                                 *
*                    NOTE - This variable must be specified if the    *
*                    'DSNR=Yes' parameter is used. Use 'DSN=YDSN' for *
*                    'PARMT=VAR'.                                     *
*                    For DSNR=Yes, allign the DSN variable on a full- *
*                    word boundary to eliminate allignament warning   *
*                    assembly messages.                               *
*                                                                     *
*      13. DSNR    - DSN name to be returned and placed in the        *
*                    variable specified for the 'DSN' parameter after *
*                    an 'Alloc' request without a DSN parm. Set to    *
*                    either YES/NO ('NO' is the default).             *
*                    If 'PARMT=DATA' is used, the DSN name is returned*
*                    in the variable 'YDSN' which would have been     *
*                    defined by the ADYN macro with 'PARMT=VAR'.      *
*                    >>>>>>>>>>>>>>>>>>>> NOTE <<<<<<<<<<<<<<<<<<<<<< *
*                    Will force 'DISP=(...,DELETE,DELETE)' to prevent *
*                    allocations of datasets with variable names all  *
*                    over the place........                           *
*                    >>>>>>>>>>>>>>>>>>>>>>>><<<<<<<<<<<<<<<<<<<<<<<< *
*                                                                     *
*      14. ERROR   - Label to branch to in case of error. If this     *
*                    parameter is not passed you will have to code    *
*                    your own return code test:                       *
*                          LTR  R15,R15                               *
*                          BNZ  ERROR01                               *
*                                                                     *
*      15. FCB     - Forms Control Buffer image id                    *
*                                                                     *
*      16. HELP    - Set to YES/NO to include these parameter comments*
*                    into the assembly listings. The default is 'NO'. *
*                                                                     *
*      17. LIST    - Set to YES/NO to generate macro expansion.       *
*                    Default is 'YES'.                                *
*                                                                     *
*      18. LRECL   - Logical record size. As a keyword, pass as an    *
*                    integer < 32760. As data pass as a halfword.     *
*                                                                     *
*      19. MEMBER  - Member name or GDG generation. The GDG generation*
*                    must be numeric an can take the format -n, 0, n  *
*                    or +n.                                           *
*                                    - or -                           *
*                    MEMBER=(member) if the member name is to be      *
*                    taken from a variable and PARMT=PARM.            *
*                                                                     *
*      20. MF      - Macro format. Must be coded as MF=E to generate  *
*                    code and MF=L either in a GETMAINed DSECT and/or *
*                    data area. MF=L defines 16 full words as a       *
*                    register save area (will not be defined if the   *
*                    area has already been defined by a prior macro). *
*                    These 16 full words are appended to both the     *
*                    DATA=VAR/CON areas if used.                      *
*                                                                     *
*      21. PARMT   - Parameter type.                                  *
*               'PARM'    - Keyword parameters passed (default) on    *
*                           the EXEC form of the macro.               *
*               'DATA'    - Parameters passed as data from the 'ADYN' *
*                           DSECT. If parameters are passed as        *
*                           variable data, a keyword entry of 'DATA'  *
*                           is required to tell the macro to process  *
*                           that parameter from the data area (in     *
*                           this case the data area must be set up as *
*                           required).                                *
*                           (Default is 'PARM'.)                      *
*                                                                     *
*      22. PERMA   - 'Permanent allocate' attribute. Prevents         *
*                    datasets from being automatically dealocated when*
*                    closed (in on-line environments).                *
*                    valid values are YES/NO with 'YES' as default.   *
*                                                                     *
*      23. PDUMP   - Invoke the PDUMP utility just prior to issuing   *
*                    the DYNALLOC SVC.                                *
*                                                                     *
*      24. PDUMPX  - This parameter is used with the PDUMP parameter  *
*                    and you may specify an exit point address to     *
*                    branch to by entering the 'QUIT' command in      *
*                    PDUMP thereby bypassing execution of DYNALLOC.   *
*                                                                     *
*      25. RECFM   - Record format.                                   *
*                                                                     *
*      26. REGR    - Set to YES/NO to restore registers on return     *
*                    from macro, default is 'YES'.                    *
*                    (Refer note "A" below.)                          *
*                                                                     *
*      27. REUSE   - Use this parameter if you wany to reallocate the *
*                    DD name without having to free it.  The macro    *
*                    will generate the Free statements prior to       *
*                    Allocation. Set to YES/NO ('NO' is the default). *
*                                                                     *
*      28. RLSE    - Release unused space indicator. Not required for *
*                    keyword parameters as would be passed on the     *
*                    SPACE= keyword. However, is required if data     *
*                    passed as there is no equivalent data area.      *
*                    Valid values are YES/NO with 'NO' as default.    *
*                                                                     *
*      29. Rn      - Substitute specified register for the nominated  *
*                    register in this routine. Registers that may be  *
*                    substituted are:                                 *
*                       R1, R4, R5, R6 and R7.                        *
*                    NOTE - You may use R14 and R15 as substitute     *
*                           registers.                                *
*                                                                     *
*      30. SPACE   - Standard JCL type space parameter, eg.           *
*                    'SPACE=(TRK,(2,2,1),RLSE)'                       *
*                    NOTE - In DATA format of the macro, RLSE is      *
*                           ignored and you must specify the RLSE=YES *
*                           paremeter.                                *
*                                                                     *
*      31. SYSOUT  - SYSOUT class and writer-name:                    *
*                    eg. SYSOUT=X, SYSOUT=(A,INTRDR),                 *
*                        SYSOUT=(A,FREDWRTR)                          *
*                                                                     *
*      32. UCLOSE  - Unalloc dataset on closing. If this option is to *
*                    be effective, it must be coded as UCLOSE=YES for *
*                    both types of parameter passing as there is no   *
*                    equivalent data area.                            *
*                    Valid values are YES/NO with 'NO' as default.    *
*                                                                     *
*      33. UNIT    - Device unit type. Any valid device unit as would *
*                    be accepted on JCL.                              *
*                                                                     *
*      34. VOLSER  - Volume serial.                                   *
*                                    - or -                           *
*                    VOLSER=(volser) if the member name is to be      *
*                    taken from a variable and PARMT=PARM.            *
*                    For VOLR=Yes, allign the VOLSER variable on a    *
*                    full-word boundary to eliminate allignament      *
*                    warning assembly messages.                       *
*                                                                     *
*      35. VOLR    - VOLSER name to be returned and placed in the     *
*                    variable specified for the 'VOLSER' parameter    *
*                    after an 'Alloc' request without a VOLSER value. *
*                    Set to either YES/NO ('NO' is the default).  If  *
*                    'PARMT=DATA' is used, the VOLSER name is returned*
*                    in the variable 'YVOLSER' which would have been  *
*                    defined by the ADYN macro with 'PARMT=VAR'.      *
*                                                                     *
*   NOTES -                                                           *
*      A) Macro format parameter of 'MF=.' Is mandatory.              *
*         A macro with 'MF=L' is required in your program to generate *
*         a register save area as registers R1,R4,R5,R6,R7,R14,R15 are*
*         used in the program. All registers except R15 will be       *
*         reset on return from the macro. R15 will contain the return *
*         code from the 'DYNALLOC' routine.                           *
*                                                                     *
*      B) If parameter 'PARMT=DATA' is used:                          *
*         Must issue an 'ADYN' macro with 'DATA=VARiable'. For re-    *
*         entrant programs, suggest you initialise the data area in   *
*         your DSECT by copying over it data initialised in your      *
*         constant area from an 'ADYN' macro using 'DATA=CONstant'.   *
*                                                                     *
*      C) Must have 'DATA=IBM' to include the IBM DSECTs needed for   *
*         SVC 99.                                                     *
*                                                                     *
*      D) Space requirements:                                         *
*         Allow 300 bytes for SVC 99 parameter list, (ie. data area   *
*         pointer to by the 'BASE' parameter).                        *
*         Allow 123 bytes for both constant and variable data area    *
*         created by the 'DATA=CON/VAR' parameter. Add 64 (16 x 4)    *
*         bytes if this expansion stores the register save areas      *
*         (refer to the MF parameter).                                *
*                                                                     *
*      E) On the EXEC form of the macro, R15 contains the return code *
*         from the 'DYNALLOC' routine.  R0 contains the error code in *
*         the high 2 order bytes and the information reason code in   *
*         the low 2 order bytes.  All the other registers wiil be     *
*         reset to their initial value on entering the macro.         *
*         NOTE - Note the comment about register usage in this macro  *
*                versus your program's register usage.                *
*                                                                     *
***********************************************************************
.A$HELPE ANOP
         LCLC  &#DISP,&#DISP1,&#DISP2,&#DISP3,&#ACTION,&#PRIM,&#SECOND
         LCLC  &#RLSE,&#DSORG,&#BUFNO,&#DIRB,&#SPACET,&#DDC
         LCLC  &#MEMBER,&#DD,&#DDR,&#DSN,&#RECFM,&#LRECL,&#BLKSZ
         LCLC  &#UNIT,&#VOLSER,&#CLASS,&#WRTR,&#DEST,&#FCB,&#COPIES
         LCLC  &@DSNR,&@DDR,&#DSNR,&#DSNV,&#REUSEF
         LCLC  &#1,&#4,&#5,&#6,&#7
         LCLC  &#PERMA,&#CHDISP
         LCLC  &#VOLR,&#VOLV,&@VOLR,&VARNM
         GBLC  &REGSMC1,&REGSMC2
.*
.*--------------------------------------------------------------------*
.*
         LCLC  &INDEX,&DELLAB
.*
         LCLA  &PL,&TUS
.*--------------------------------------------------------------------*
         GBLC  &REGSAVR,&REGSMCR
         GBLB  &REGSFLG,&REGDFLG,&ADYNFL0,&ADYNFL1
         AIF   (&REGSFLG).A$RS
&REGSAVR SETC  'GB'.'&SYSNDX'.'#'
&REGSMCR SETC  'ADYN'
&REGSMC1 SETC  'ADYN'
&REGSMC2 SETC  'ADYN'
&REGSFLG SETB  1
.A$RS    ANOP
&#CHDISP SETC  'NO'
         AIF   (&ADYNFL0).A$RT
&ADYNFL0 SETB  1
.*-------------- ADYN EQUATES FOR MEANINGFULL VALUES -----------------*
$SHR     EQU X'08'
$NEW     EQU X'04'
$MOD     EQU X'02'
$OLD     EQU X'01'
$UNCATLG EQU X'01'
$CATLG   EQU X'02'
$DELETE  EQU X'04'
$KEEP    EQU X'08'
$FBA     EQU X'94'
$VBA     EQU X'54'
$FB      EQU X'90'
$VB      EQU X'50'
$U       EQU X'C0'
$F       EQU X'80'
$V       EQU X'40'
$POU     EQU X'03'
$PSU     EQU X'41'
$DAU     EQU X'21'
$PO      EQU X'02'
$PS      EQU X'40'
$DA      EQU X'20'
.A$RT    ANOP
.*--------------------------------------------------------------------*
.*  INITIALISE SYSLIST TYPE VARIABLES                                 *
.*--------------------------------------------------------------------*
&#1      SETC  '&R1.'
&#4      SETC  '&R4.'
&#5      SETC  '&R5.'
&#6      SETC  '&R6.'
&#7      SETC  '&R7.'
&#ACTION SETC  '&ACTION'
&#DISP1  SETC  '&DISP(1)'
&#DISP2  SETC  '&DISP(2)'
&#DISP3  SETC  '&DISP(3)'
         AIF   (T'&DISP EQ 'O').BYPDP3        BYPASS IF DISP OMITTED
         AIF   ('&#DISP1'(1,1) NE 'N').BYPDP3 BYPASS IF DISP NOT 'NEW'
         AIF   (T'&#DISP2 NE 'O').BYPDP2      BYP IF DISP2 PRESENT
&#DISP2  SETC  'CATLG'
.BYPDP2  ANOP
         AIF   (T'&#DISP3 NE 'O').BYPDP3      BYP IF DISP3 PRESENT
&#DISP3  SETC  'DELETE'
.BYPDP3  ANOP
&#SPACET SETC  '&SPACE(1)'
&#PRIM   SETC  '&SPACE(2,1)'
&#SECOND SETC  '&SPACE(2,2)'
&#DIRB   SETC  '&SPACE(2,3)'
&#CLASS  SETC  '&SYSOUT(1)'
&#WRTR   SETC  '&SYSOUT(2)'
&#RLSE   SETC  '&SPACE(3)'
         AIF (T'&#RLSE EQ 'O').TPARMT1     BYPASS IF NO 'RLSE' PARM
&#RLSE   SETC '&#RLSE'(1,1)                EXTRACT 1ST. CHAR
.TPARMT1 ANOP
         AIF ('&PARMT'(1,1) EQ 'P').GRELSE IF NON-VAR RLSE IN SPACE
         AIF (T'&#RLSE NE 'YES').GRELSE    BYPASS IF 'RLSE=YES' NOT REQ
&#RLSE   SETC  'R'                         SET 'RLSE' PARM
.GRELSE  ANOP
&#DSORG  SETC  '&DSORG'                    SET 'DSORG' WORK PARM
         AIF (T'&#DSORG NE 'O').DSORGE     IF DSORG PARM SUPPLIED BYP
         AIF (T'&#SPACET EQ 'O').DSORGE    IF NO SPACE TYPE BYPASS
         AIF (T'&#DIRB EQ 'O').DSORGPS     IF DIRB NOT SUPPLIED PS ORG
&#DSORG  SETC  'PO'
         AGO .DSORGE
.DSORGPS ANOP
&#DSORG  SETC  'PS'
.DSORGE  ANOP
.*-------------------------------------------------------------------*
.*     INITIALISE VARIABLES SO THEY MAY BE MANIPULATED               *
.*-------------------------------------------------------------------*
&#DD     SETC '&DD'
&#DDC    SETC '&DDC'
&#DDR    SETC '&DDR'
&#DSNR   SETC '&DSNR'
&#DSN    SETC '&DSN'
&#MEMBER SETC '&MEMBER'
&#VOLSER SETC '&VOLSER'
&#VOLR   SETC '&VOLR'
&#UNIT   SETC '&UNIT'
&#DEST   SETC '&DEST'
&#FCB    SETC '&FCB'
&#COPIES SETC '&COPIES'
&#BUFNO  SETC '&BUFNO'
&#RECFM  SETC '&RECFM'
&#LRECL  SETC '&LRECL'
&#BLKSZ  SETC '&BLKSIZE'
.*--------------------------------------------------------------------*
         AIF  (T'&DATA NE 'O').DATAMAP   GO PROCESS DATA TYPE
         AIF  ('&MF' EQ 'L').MFELIST     GO PROCESS LIST FORM
.*--------------------------------------------------------------------*
.MFEEXEC ANOP
.*--------------------------------------------------------------------*
&#PERMA  SETC '&PERMA'
         AIF ('&#ACTION'(1,1) NE 'A').BPREAL1  NOT REALLOC BYPASS'
         AIF ('&REUSE'(1,1) NE 'Y').BPREAL1    REUSE NOT REQUIRED
         AIF ('&#REUSEF' EQ 'Y').BPREAL1       REUSE RESET BYPASS
&#ACTION SETC 'FREE'
         AGO .ISFREE1                          GO FREE IT
.*--------------------------------------------------------------------*
.BPREAL1 ANOP
         AIF ('&#ACTION'(1,1) EQ 'U').ISFREE1  PROCESS 'UNALLOC'
         AIF ('&#ACTION'(1,1) NE 'F').TSTINF1 BYPASS IF NOT 'FREE'