         MACRO
&NAME    CLEARV &OUT,&LENGTH,&PAD=40,&MF=,&LIST=YES,&HELP=NO
         AIF   ('&HELP'(1,1) EQ 'Y').A$HELP
*---------------------------------------------------------------------*
* For a more comprehensive description of the 'CLEARV'  parameters    *
* and it's use, pass parameter of 'HELP=Yes'.                         *
*---------------------------------------------------------------------*
         AGO .A$HELPE
.A$HELP  ANOP
*---------------------------------------------------------------------*
*                                                                     *
*   Move a particular pad character to any variable. The variable may *
*   be > 256 characters.                                              *
*                                                                     *
*   For variable < 258: uses a ripple move.                           *
*       variable > 257: uses the MVCL instruction.                    *
*                                                                     *
*   NOTE : - All registers are kept in tact by this macro.            *
*                                                                     *
*   PARAMETERS:                                                       *
*     1. Destination variable's name.                                 *
*     2. Length of the variable. To be supplied if the "L'varname"    *
*        function will not return the required length.                *
*     3. PAD=xx - HEX notation of the pad character. The default is   *
*                 X'40' (ie. spaces).                                 *
*     3. MF=E/L - Macro format. For re-entrant programs, MF=L is      *
*                 required as the macro requires a register save area.*
*                 It uses a common save area with other macros,       *
*                 however, the first macro reserves the storage and it*
*                 may be this one.                                    *
*     4. HELP=YES/NO - to generate these comments.                    *
*     5. LIST=YES/NO - to generate a list of commands generated.      *
*                                                                     *
*---------------------------------------------------------------------*
.A$HELPE ANOP
         PUSH  PRINT
         AIF   ('&LIST'(1,1) NE 'N').A$XX
         PRINT NOGEN
.A$XX    ANOP
         LCLC  &CLNAME
         LCLA  &VLENGTH,&LT258L
.*--------------------------------------------------------------------*
         AIF   ('&MF' EQ 'L').A$YY
         AIF   (T'&OUT EQ 'O').E1
         AIF   (T'&LENGTH EQ 'O').NOLEN
.A$YY    ANOP
&VLENGTH SETA  &LENGTH
         AGO   .CONT1
.NOLEN   ANOP
&VLENGTH SETA  L'&OUT
.CONT1   ANOP
         AIF   (&VLENGTH LT 258).A$RD
.*--------------------------------------------------------------------*
         AIF   ('&MF' EQ 'L').A$00
.A$00    ANOP
         GBLB  &CLFIRST
         GBLC  &CLBYP1
.*--------------------------------------------------------------------*
         GBLC  &REGSAVR,&REGSMCR
         GBLB  &REGSFLG,&REGDFLG
         AIF   (&REGSFLG).A$RS
&REGSAVR SETC  'GB'.'&SYSNDX'.'#'
&REGSMCR SETC  'CLEARV'
&REGSFLG SETB  1
.A$RS    ANOP
.*--------------------------------------------------------------------*
         AIF   ('&MF' EQ 'E').A$88
         AIF   (&CLFIRST).A$88
&CLFIRST SETB  1
&CLNAME  SETC  'CL'.'&SYSNDX'
&CLBYP1  SETC  '&CLNAME'.'1'
.*--------------------------------------------------------------------*
.*    IF GLOBAL REGISTER SAVE AREA DEFINED, BYPASS                    *
.*--------------------------------------------------------------------*
         AIF   (&REGDFLG).A$RD
&REGDFLG SETB  1
         AIF   ('&MF' EQ 'L').A$77
         B     &CLBYP1                 BRANCH AROUND REGISTER SAVEAREA
.A$77    ANOP
&REGSAVR DS    16F                     REGISTER SAVE AREA
         AIF   ('&MF' EQ 'L').EXIT
&CLBYP1  DS    0H
.A$RD    ANOP
         AIF   ('&MF' EQ 'L').EXIT
.*--------------------------------------------------------------------*
.A$88    ANOP
         AIF   (&VLENGTH GT 257).A$99
*  Ripple move                                                        *
&LT258L  SETA  &VLENGTH-1
         MVI   &OUT,X'&PAD'            MOVE PAD CHARACTER
         MVC   &OUT+1(&LT258L),&OUT    RIPPLE MOVE TO REST OF VARIABLE
         AGO   .EXIT
.A$99    ANOP
*  MVCL instruction move                                              *
         STM   R14,R1,&REGSAVR         SAVE REGISTERS
         LA    R0,&OUT                 LOAD ADDRESS OF VARIABLE
         L     R1,=F'&VLENGTH'         LOAD LENGTH OF VARIABLE
         XR    R14,R14                 CLEAR SOUREC ADDRESS
         XR    R15,R15                 CLEAR SOURCE LENGTH
         ICM   R15,B'1000',=X'&PAD'    MOVE PAD CHARACTER
         MVCL  R0,R14                  SET AREA TO ALL SPACES
         LM    R14,R1,&REGSAVR         RESTORE SAVED REGISTERS
.*--------------------------------------------------------------------*
.EXIT    ANOP
         AGO   .MEXIT1
.*--------------------------------------------------------------------*
.E1      MNOTE 12,'CLEAR BIG REQUIRES A DESTINATION VARIABLE.'
         AGO   .MEXIT1
.E2      MNOTE 12,'CLEAR BIG LONG REQUIRES A LENGTH.'
.MEXIT1  ANOP
         AIF   ('&LIST'(1,1) EQ 'Y').A$ZZ
         POP PRINT
.A$ZZ    ANOP
         MEND
