         MACRO
&NAME    CTRACE &PL
         AIF   (T'&PL EQ 'O').E1
         LCLA  &PLL
&PLL     SETA  K'&PL-2
.MVX     MVC   TSLINE2(8),=C&PL
         EXEC  CICS,WRITEQ,TS,QUEUE(TSLINE1),FROM(TSLINE2)             X
            LENGTH(TSLEN)
         MEXIT
.E1      MNOTE 12,'TRACE REQUIRES A FUNCTION PARAMETER LIST'
         MEND
