         MACRO
&NAME    INCLUDE &MEMBER=,&DSECT=NO,&BASER=R10
         AIF   (T'&MEMBER EQ 'O').E1
         AIF   ('&DSECT' EQ 'NO').A$99
         DSECT
         USING *,&BASER
.A$99    ANOP
         DC   C'&MEMBER'
         COPY &MEMBER
         MEXIT
.E1      MNOTE 8,'INCLUDE NEEDS A MEMBER.'
         MEND
