         MACRO
&NAME    ISPBRIF &PARM1,&PARM2,&PARM3,&PARM4,&PARM5,&PARM6,            X
               &LIST=YES,&MF=,&HELP=NO
         PUSH  PRINT
         AIF   ('&LIST' NE 'NO').A$XX
         PRINT NOGEN
.A$XX    ANOP
         AIF   ('&HELP' EQ 'YES').A$HELP
*---------------------------------------------------------------------*
* FOR A MORE COMPREHENSIVE DESCRIPTION OF THE 'ISPBRIF' PARAMETER     *
* AND USE PASS PARAMETER 'HELP=YES'.                                  *
*---------------------------------------------------------------------*
         AGO .A$HELPE
.A$HELP  ANOP
*---------------------------------------------------------------------*
*                                                                     *
* This macro is used to define addressability between a program and   *
* ISPF variables.                                                     *
*                                                                     *
* In the normal form:                                                 *
*   It is designed to create common variables the first time thru and *
*   re-use them everytime the macro is invoked.                       *
* In re-entrant form:                                                 *
*   Use the MF=L and MF=E options.                                    *
*                                                                     *
* Parameters are pointers to the following data areas:                *
*   1. PARM1     - data-set-name         (max length 54 bytes, no     *
*                  imbedded blanks.                                   *
*   2. PARM2     - rec-format (2 bytes: 'F ', 'FA', 'FM', 'V ', 'VA', *
*                  'VM' or 'U'.                                       *
*   3. PARM3     - rec-length: fullword initialised to max reclen     *
*                  (you can "hide" data by specifying length less     *
*                  than actual length.)                               *
*   4. PARM4     - read-routine:                                      *
*   5. PARM5     - command-routine:                                   *
*   6. PARM5     - dialog-data: used to reestablish addresability     *
*                  when control is given to I/O routine. (Usually the *
*                  base register address or pointer to the base reg   *
*                  address(es).                                       *
*   6. PARM6     - panel-name: your own BROWSE display panel.         *
*   7. PARM7     - format-name: the name of the format to be used to  *
*                  reformat the dsata.                                *
*   8. PARM8     - 'YES'/'no': spacifies whether the data is to be    *
*                  treated in mixed mode DBCS data.                   *
*   9. MF=...... - Macro format. Omit for non re-entrant programs.    *
*                  For re-entrant programs:                           *
*                    E - EXEC format of macro                         *
*                    L - LIST format of macro.                        *
*  10. LIST=..... - Generate or suppress macro expansion, (YES/NO).   *
*  11. HELP=..... - Displat these comments (YES/NO) default is "NO"   *
*                                                                     *
* Example of input:                                                   *
*      ISPBRIF NAM=(ISPFname),VAR=int.name,FORMAT=CHAR,LEN=20         *
*          - OR -                                                     *
*      EXEC format:                                                   *
*        ISPBRIF NAM=(ISPFname),VAR=int.name,FORMAT=CHAR,LEN=20,MF=E *
*      LIST format:                                                   *
*        ISPBRIF MF=L                                                 *
*                                                                     *
*---------------------------------------------------------------------*
.A$HELPE ANOP
&NAME    DS    0H
         GBLC  &BNAME
         GBLB  &BDFX1ST,&BMFE1ST,&BNMF1ST
         LCLA  &LL,&BLL
&LL      SETA  K'&LEN
&BLL     SETA  K'&BAR
         AIF   (&BDFX1ST).A$00         IF NOT 1ST. BYPASS
&BDFX1ST SETB  1                       SET 1ST. TIME THRU FLAG
&BNAME   SETC  'IVD'.'&SYSNDX'         SET "INDEX"
.A$00    ANOP
         AIF   ('&MF' EQ 'L').A$11     BYPASS IF RE-ENT
         AIF   ('&MF' EQ 'E').A$33     BYPASS IF RE-ENT
         AIF   (T'&MF NE 'O').E1       INVALID FORMAT OF MF PARM
         AIF   (&BNMF1ST).A$55         BYPASS IF NOT 1ST NON-R
&BNMF1ST SETB  1                       SET 1ST. TIME THRU FLAG
         B     &BNAME.L                BYPASS DATA DEFS AFTER 1ST. THRU
         AGO  .A$111
.A$11    ANOP
*---------------------------------------------------------------------*
*    LIST form of macro 'ISPBRIF'                                     *
*---------------------------------------------------------------------*
.A$111   ANOP
&BNAME.1 DS    F                       VDEFINE
         DS    F                       ISPF NAME
         DS    F                       INTERNAL NAME
         DS    F                       VAR TYPE
         DS    F                       VAR LENGTH
         DS    F                       OPTION
&BNAME.2 DC    C'VDEFINE '             VDEF LITERAL
&BNAME.3 DC    CL10'          '        ISPF DEST (ALLOW FOR "()")
         DC    C' '                    SPACER
&BNAME.4 DC    C'CHAR    '             VDEF FORMAT TYPE
         DC    C' '                    SPACER
&BNAME.5 DS    CL2                     LENGTH SOURCE PRIOR CONVERSION
         DC    C' '                    SPACER
&BNAME.6 DS    F                       R2 SAVEAREA FOR LEN CONVERSION
&BNAME.7 DS    D                       DBL WD LEN CONVERSION WK FLD
&BNAME.8 DS    F                       LENGTH CONVERTED TO FULL WD BIN
&BNAME.9 DC    C'&OPT    '             OPTIONS (NOT USED BY THIS RTN)
&BNAME.V DS    F                       INTERNAL NAME ADDRESS STORE
*-----------------------------------------------------------------*
         AIF   ('&MF' NE 'L').A$22     BYPASS IF NOT MF=L
         POP   PRINT
         MEXIT                         EXIT IF MF=L
.A$22    ANOP
&BNAME.L DS    0H
         AIF   (T'&MF EQ 'O').A$44     BYPASS IF RE-ENT
.A$33    ANOP
*---------------------------------------------------------------------*
*    EXEC form of macro 'ISPBRIF'                                     *
*---------------------------------------------------------------------*
.EXMFE   ANOP
         AIF   (&BMFE1ST).A$55          IF NOT 1ST. BYPASS
&BMFE1ST SETB  1                        SET 1ST. TIME THRU FLAG
*    Unique code                                                      *
*---------------------------------------------------------------------*
         MVI   &BNAME.2,C' '            SPACE FILL DATA
         MVC   &BNAME.2+1(55),&BNAME.2  USING RIPPLE MOVE
         MVC   &BNAME.2(7),=C'VDEFINE'  MOVE LITERAL
         AGO   .A$441
.A$44    ANOP
*    Unique code                                                      *
*---------------------------------------------------------------------*
.A$441   ANOP
         ST    R2,&BNAME.6             SAVE REG2
         LA    R2,&BNAME.1             R1 DEST VALUE FOR "CALL"
         LA    R1,&BNAME.2             ADDRESS OF PARAMETER
         ST    R1,0(R2)                STORE ADDRESS
         LA    R2,4(R2)                POINT TO NEXT ADDRESS POS
         LA    R1,&BNAME.3             ETC...
         ST    R1,0(R2)                    "
         LA    R2,4(R2)                    "
         LA    R2,4(R2)                    "
         LA    R1,&BNAME.4                 "
         ST    R1,0(R2)                    "
         LA    R2,4(R2)                    "
         LA    R1,&BNAME.8                 "
         ST    R1,0(R2)                    "
         LA    R2,4(R2)                    "
         LA    R1,&BNAME.9                 "
         ST    R1,0(R2)                    "
         MVI   0(R2),X'80'                 "
         L     R2,&BNAME.6                RESET R2
.A$55    ANOP
*-----------------------------------------------------------------*
*    Common code                                                      *
*---------------------------------------------------------------------*
         AIF   (T'&MF EQ 'O').A$66
         MVC   &BNAME.4(8),=CL8'&FORMAT' SET UP "(ISPF-FORM)" VALUE
.A$66    ANOP
         MVC   &BNAME.3(10),=CL10'&NAM'   SET UP "(ISPF-NAME)" VALUE
         MVC   &BNAME.5(&LL),=CL&LL'&LEN' SET UP LENGTH
         PACK  &BNAME.7,&BNAME.5(&LL)     PACK LENGTH FOR CONVERSION
         CVB   R1,&BNAME.7                CONV LEN TO FULL WD BIN
         ST    R1,&BNAME.8                SAVE CONVERTED  LENGTH
         LA    R1,&BAR                    ADDRESS OF INTERNAL NAME
         ST    R1,&BNAME.1+8              SAVE
         LA    R1,&BNAME.1                LOAD PARAMETER LIST ADDRESS
         L     15,ISPLINK                 LOAD "ISPLINK" ADDRESS
.*       L     15,=V(ISPLINK)             LOAD "ISPLINK" ADDRESS
         BALR  14,15                      BRANCH AND LINK
         POP   PRINT
         MEXIT
.*--------------------------------------------------------------------*
.E1      MNOTE 8,'INVALID "MF" PARAMETER PASSED'
.*--------------------------------------------------------------------*
         POP   PRINT
         MEND
