         MACRO
&NAME    ISPEXEC &XTEXT,&XLENG,&LIST=NO,&HELP=NO,&LONG=NO,&INIT=NO,    +
               &MF=,&TYPE=VAR
         PUSH  PRINT
         AIF   ('&LIST' NE 'NO').A$XX
         PRINT NOGEN
.A$XX    ANOP
         AIF   ('&HELP' EQ 'YES').A$HELP
*---------------------------------------------------------------------*
* For a more comprehensive description of the 'ISPEXEC' parameter and *
* it's use, pass parameter 'HELP=Yes'.                                *
*---------------------------------------------------------------------*
         AGO .A$HELPE
.A$HELP  ANOP
*---------------------------------------------------------------------*
*                                                                     *
* Macro to initialise an "ISPF" environment and set up variables to   *
*   facilitate executing ISPEXEC commands.                            *
*                                                                     *
* Format:                                                             *
*   1. ISPEXEC no.parameter/INIT=Y          (Required on first        *
*                                            execution. Requires both *
*                                            MF=L and MF=E for re-    *
*                                            entrant programs.        *
*   2. ISPEXEC 'normal CLIST type text'                               *
*   3. ISPEXEC int.var.name,int.var.length                            *
*                                                                     *
* Parameters:                                                         *
*   1. XTEXT     - a) Quoted literal (follows the normal CLIST syntax *
*                     after the ISPEXEC command).                     *
*                            - OR -                                   *
*                  b) Variable name that contains the normal CLIST    *
*                     syntax following the ISPEXEC command.           *
*   2. XLENG     - Length of the variable if Format '2' used for the  *
*                  'XTEXT' parameter.                                 *
*   3. LONG=.... - Specify long move (MVCL) if Format '2' used.       *
*   4. LIST=.... - Generate or suppress macro expansion, (YES/NO).    *
*   5. INIT=.... - Force initial invocation, (YES/NO).                *
*   6. TYPE=.... - VARiable/CONstant for MF=L. For re-entrant programs*
*                  to copy constant into GETMAINed variable.          *
*   7. MF=....   - Macro format. Only required for re-entrant         *
*                  programs and then ONLY ON the initialisation       *
*                  invocation.                                        *
*                  For re-entrant programs:                           *
*                    E - EXEC format of macro on INIT invocation.     *
*                    L - LIST format of macro.                        *
*                                                                     *
* NOTE:                                                               *
*      1. The first execution must be of the macro WITHOUT the XTEXT  *
*         parameter or WITH the INIT=Y parameter.                     *
*      2. Does not cover "VDEF", "VCOPY", "VDELETE", "VRESET" or      *
*         "VREPLACE".                                                 *
*                                                                     *
*---------------------------------------------------------------------*
.A$HELPE ANOP
         AIF   (T'&NAME EQ 'O').NONAME1    Bypass if NAME missing
&NAME    DS    0H
.NONAME1 ANOP
         GBLB  &ISPI1ST
         GBLC  &ISPNAME,&ISPTYP,&ISPEXEP,&ISPBUFA,&ISPBUFL,&ISPBUFR
         LCLC  &ISPLABB
         AIF   (&ISPI1ST).A$00
&ISPI1ST SETB  1
&ISPNAME SETC  'INI'.'&SYSNDX'
.A$00    ANOP
         AIF   ('&INIT'(1,1) EQ 'Y').INITIL
         AIF   (T'&XTEXT NE 'O').SETEXEC    Bypass if INIT=N + param
.*--------------------------------------------------------------------*
.*   Initialisation form of macro                                     *
.*--------------------------------------------------------------------*
.INITIL  ANOP
&ISPTYP  SETC  'LOAD'
&ISPEXEP SETC  '&ISPNAME'.'1'
&ISPBUFA SETC  '&ISPNAME'.'2'
&ISPBUFL SETC  '&ISPNAME'.'3'
&ISPBUFR SETC  '&ISPNAME'.'4'
&ISPLABB SETC  '&ISPNAME'.'X'
         AIF   (T'&MF NE 'O').A$11   RE-ENTRANT BYPASS
         B     &ISPLABB                PYPASS DATA
.A$11    ANOP
         AIF   ('&MF' EQ 'E').A$22   RE-ENTRANT LIST EXIT
*---------------------------------------------------------------------*
*    LIST form of macro 'ISPEXEC' initialisation                      *
*---------------------------------------------------------------------*
         DS    0F                      FULLWORD ALLIGNMENT
         AIF   ('&TYPE'(1,1) NE 'C').A$12
         DS    A                       A(ISPF LINK INTERFACE)
         DS    A                       A(ISPF EXEC INTERFACE)
         DC    A(0)                    A(COMMAND LENGTH)
         DC    A(0)                    A(COMMAND BUFFER)
         DC    F'0'                    COMMAND LENGTH
         DS    0CL300                  COMMAND BUFFER
         AGO   .A$13
.A$12    ANOP
ISPLINK  DS    A                       A(ISPF LINK INTERFACE)
ISPEXEC  DS    A                       A(ISPF EXEC INTERFACE)
&ISPEXEP DC    A(&ISPBUFL)             A(COMMAND LENGTH)
&ISPBUFA DC    A(&ISPBUFR)             A(COMMAND BUFFER)
&ISPBUFL DC    F'0'                    COMMAND LENGTH
&ISPBUFR DS    0CL300                  COMMAND BUFFER
.A$13    ANOP
         DC    CL250' ',CL50' '        INITIALISED TO SPACES
         AIF   ('&MF' EQ 'L').MEXIT  Re-entrant list, Exit
&ISPLABB DS    0H
.*       AIF   (T'&MF EQ 'O').A$33   Non RE-ENTRANT BYPASS
.A$22    ANOP
*---------------------------------------------------------------------*
*    EXEC form of macro 'ISPEXEC' initialisation                      *
*---------------------------------------------------------------------*
         LA    R1,&ISPBUFL             LOAD ADDRESS OF COMMAND LENGTH
         ST    R1,&ISPEXEP             STORE COMMAND LENGTH ADDRESS
         LA    R1,&ISPBUFR             LOAD ADDRESS OF COMMAND BUFFER
         ST    R1,&ISPBUFA             STORE COMMAND BUFFER ADDRESS
         OI    &ISPBUFA,X'80'          MOVE LAST PARM INDICATOR
*
.A$33    ANOP
*        LOAD  EP=ISPLINK              FETCH ISPF LINK INTERFACE
         LOAD  EP=ISPLINK              FETCH ISPF LINK INTERFACE
         ST    R0,ISPLINK              SAVE ITS ADDRESS
*        LOAD  EP=ISPEXEC              FETCH ISPF EXEC INTERFACE
         LOAD  EP=ISPEXEC              FETCH ISPF EXEC INTERFACE
         ST    R0,ISPEXEC              SAVE ITS ADDRESS
.A$99    ANOP
*---------------------------------------------------------------------*
         AIF   (T'&XTEXT EQ 'O').MEXIT      Exit if no parameter
.*-------------------------------------------------------------------*
.SETEXEC ANOP
         AIF   (T'&XLENG NE 'O').MVX2
         AIF   ('&XTEXT'(1,1) NE '''').E3
.*-------------------------------------------------------------------*
         LCLC  &CHAR,&AMPER
         LCLA  &LC,&QC,&AC
&AMPER   SETC  '&&'
&LC      SETA  K'&XTEXT                     LOOP COUNTER
&QC      SETA  0                            QUOTES COUNTER
&AC      SETA  0                            AMPERSAND COUNTER
&CP      SETA  0                            CHARACTER POINTER
.LOOP1   ANOP
&CP      SETA  &CP+1                        INCREMENT CHARACTER PTR
&CHAR    SETC  '&XTEXT'(&CP,1)
.TQUOT   ANOP
         AIF   ('&CHAR' NE '''').TAMPR
&QC      SETA  &QC+1
         AGO   .NXTCH
.TAMPR   ANOP
         AIF   ('&CHAR.&CHAR' NE '&AMPER').NXTCH
&AC      SETA  &AC+1
.NXTCH   ANOP
         AIF   (&CP LT &LC).LOOP1           LOOP TILL END
&LC      SETA  &LC-2-(((&QC-2)/2)+(&AC/2))
         MVC   &ISPBUFR.(&LC),=C&XTEXT
.*-------------------------------------------------------------------*
         LA    1,&LC                   LOAD LENGTH
         AGO   .LA
.MVX2    ANOP
         AIF   ('&XTEXT'(1,1) EQ '''').E2
         AIF   ('&LONG'(1,1) EQ 'N').MVX4
.MVX3    ANOP
         LA    R0,&ISPBUFR             LOAD ADDRESS OF DESTINATION
         LA    R1,&XLENG               LOAD LENGTH OF MOVE
         LA    R14,&XTEXT              LOAD SOURCE ADDRESS
         LA    R15,&XLENG              LOAD LENGTH OF MOVE
         ICM   R15,B'1000',=C'         '            MOVE PAD CHARACTER
         MVCL  R0,R14                  SET AREA TO ALL SPACES
         AGO   .MVX5
.MVX4    ANOP
         MVC   &ISPBUFR.(&XLENG),&XTEXT
.MVX5    ANOP
         LA    1,&XLENG                LOAD LENGTH
.LA      ANOP
         ST    1,&ISPBUFL              STORE LENGTH
         LA    1,&ISPEXEP              LOAD PARAMETER LIST POINTER
         L     15,ISPEXEC              LOAD 'ISPEXEC' MODULE ADDR
         BALR  14,15                   CALL 'ISPEXEC'
         AGO   .MEXIT                       Exit macro
*---------------------------------------------------------------------*
.E1      MNOTE 12,'ISPEXEC REQUIRES A FUNCTION PARAMETER LIST'
         AGO   .MEXIT                       Exit macro
.E2      MNOTE 12,'VARIABLE NAME MUST NOT BE QUOTED'
         AGO   .MEXIT                       Exit macro
.E3      MNOTE 12,'VARIABLE NAME REQUIRES A LENGTH'
         AGO   .MEXIT                       Exit macro
.*--------------------------------------------------------------------*
.MEXIT   ANOP
         POP   PRINT
         MEND
