         MACRO
&NAME    ISPINIT &MF=,&LIST=NO,&HELP=NO
*---------------------------------------------------------------------*
* Obsolete macro. Replace as follows:                                 *
*    1. Non re-entrant programs;                                      *
*         ISPEXEC INIT=Y                                              *
*    2. Re-entrant programs;                                          *
*         ISPEXEC INIT=Y,MF=E         Execute format                  *
*         ISPEXEC INIT=Y,MF=L         List format                     *
*---------------------------------------------------------------------*
.E1      MNOTE 12,'REPLACE ''ISPINIT'' WITH ''ISPEXEC'' AS SPECIFIED'
.*--------------------------------------------------------------------*
         MEND
