         MACRO
&NAME    MACT1 &SOURCE
         LCLA  &PLL
&PLL     SETA  K'&SOURCE
         DC    C'&PLL'
         LA    R1,&SOURCE
         MEND
