         MACRO
&NAME    SCREENL &PL
         AIF   (T'&PL EQ ' ').E1
         LCLA  &PLL
         GBLB  &SLFIRST
         GBLC  &SLNAM
&PLL     SETA  K'&PL-2
         AIF   (&SLFIRST).A$99
&SLFIRST SETB  1
&SLNAM   SETC  'SL'.'&SYSNDX'
         B     &SLNAM.4
&SLNAM.1 EQU   *
         WCCDC W
         DC    X'11D9C22902C0E442F6'
         DC    XL5'11D9D31DE8'
         DC    C'¦'
         DC    XL5'115A501DE8'
         DC    CL79'---------------------------------------------------X
               ----------------------------'
         DC    XL5'115B601DE8'
         DC    CL1'¦'
         DC    X'115BE22903C0E842F541F2'
&SLNAM.2 DS    CL75
         DC    XL5'115C6E1DE8'
         DC    CL1'¦'
         DC    XL5'115CF01DE8'
         DC    CL79'---------------------------------------------------X
               ----------------------------'
&SLNAM.3 EQU   *-&SLNAM.1
&SLNAM.5 DS    18F
&SLNAM.4 DS    0H
.A$99    ANOP
         STM   R0,R15,&SLNAM.5
         MVI   &SLNAM.2,X'40'
         MVC   &SLNAM.2+1(74),&SLNAM.2
         MVC   &SLNAM.2(&PLL),=C&PL
         TPUT  &SLNAM.1,&SLNAM.3,NOEDIT,WAIT,,BREAKIN,HIGHP  <----*
         TGET  &SLNAM.1,10,ASIS,WAIT
         LM    R0,R15,&SLNAM.5
         MEXIT
.E1      MNOTE 12,'SCREENL RQUIRES A LITERAL STRING'
         MEND
