         MACRO
&NAME    SCREEND &PL,&FL
         AIF   (T'&PL EQ 'O').E2
         LCLA  &PLL
         GBLB  &SDFIRST
         GBLC  &SDNAM
&PLL     SETA  L'&PL
         AIF   (T'&FL EQ 'O').E0
&PLL     SETA  &FL
.E0      GBLB  &SDFIRST
.E1      GBLC  &SDNAM
         AIF   (&SDFIRST).A$99
&SDFIRST SETB  1
&SDNAM   SETC  'SC'.'&SYSNDX'
         B     &SDNAM.4
&SDNAM.1 EQU   *
         WCCDC W
         DC    X'11D9C22902C0E442F6'
         DC    XL5'115A501DE8'
         DC    CL79'---------------------------------------------------X
               ----------------------------'
         DC    XL5'115B601DE8'
         DC    CL1'¦'
         DC    X'115BE22903C0E842F541F2'
&SDNAM.2 DS    CL75
         DC    XL5'115C6E1DE8'
         DC    CL1'¦'
         DC    XL5'115CF01DE8'
         DC    CL79'---------------------------------------------------X
               ----------------------------'
&SDNAM.3 EQU   *-&SDNAM.1
* &SDNAM.5 DS    18F
&SDNAM.4 DS    0H
.A$99    ANOP
*        STM   R0,R15,&SDNAM.5
         MVI   &SDNAM.2,X'40'
         MVC   &SDNAM.2+1(74),&SDNAM.2
         MVC   &SDNAM.2(&PLL),&PL
         TPUT  &SDNAM.1,&SDNAM.3,NOEDIT,WAIT,,BREAKIN,HIGHP  <----*
         TGET  &SDNAM.2,10,ASIS,WAIT
*        LM    R0,R15,&SDNAM.5
         MEXIT
.E2      MNOTE 12,'"SCREEND" REQUIRES AN INPUT VARIABLE.'
.E3      MNOTE 12,'"SCREEND" REQUIRES AN LENGTH VARIABLE.'
         MEND
