         MACRO
&NAME    SHOWREGS &BASE
*---------------------------------------------------------------------*
* MACRO TO SET THE FIRST 3 BYTES OF A VARIABLE TO "SBA" AND THE HEX   *
* ADDRESS OF ROW AND COLUMN FROM THE DECIMAL ROW/COL VALUES.          *
*                                                                     *
*   PARAMETERS:                                                       *
*     FORMAT (A) -                                                    *
*       1. DESTINATION ADDRESS                                        *
*       2. ROW NUMBER                                                 *
*       3. COL NUMBER                                                 *
*                                                                     *
*     FORMAT (B) - ASCERTAINED FROM MISSING PARAMETER NO 3.           *
*       1. DESTINATION VARIABLE.                                      *
*       2. SOURCE VARIABLE WITH 2 CONTIGUOUS HALFWORDS CONTAINING     *
*          ROW NUMBER AND COLUMN NUMBER.                              *
*                                                                     *
*---------------------------------------------------------------------*
         GBLC  &REGSAVE
         GBLC  &BASEREG
         GBLB  &REGSFST
         AIF   (&REGSFST).A$99
&REGSFST SETB  1
         LCLC  &TNAME
&TNAME   SETC  'SR'.'&SYSNDX'
&REGSAVE SETC  '&TNAME'.'1'
&BASEREG SETC  '&TNAME'.'2'
&SRBYPAS SETC  '&TNAME'.'3'
         B     &SRBYPAS
&REGSAVE DS    16F
&BASEREG DS    C
&SRBYPAS DS    0H
.A$99    ANOP
         STM   R0,R15,&REGSAVE          SAVE REGISTERS
         MVI   &BASEREG,C' '            CLEAR BASE REGISTER
         AIF   (T'&BASE EQ 'O').SETPARM
         LA    R0,&BASE                 LOAD BASE REG
         ST    R0,&BASEREG              SAVE BASE REGISTER
.SETPARM ANOP                           MISSING 3RD PARM - VAR ADDR
         LA    R1,&REGSAVE              LOAD REGISTERSAVE
         CALL  SHOWREGS                 CALL SHOW REGISTER ROUTINE
         MEND
