         MACRO
&NAME    TRACE#L &OUT,&PL
         AIF   (T'&OUT EQ ' ').E1
         AIF   (T'&PL EQ ' ').E2
         LCLA  &PLL
&PLL     SETA  K'&PL-2
         GBLC  &TRDATA
         GBLC  &TR0SAV
         GBLB  &TLFIRST
         AIF   (&TLFIRST).A$99
&TLFIRST SETB  1
         LCLC  &TNAME
&TNAME   SETC  'TR'.'&SYSNDX'
&TRDATA  SETC  '&TNAME'.'1'
&TR0SAV  SETC  '&TNAME'.'2'
         B     &TNAME.3
&TNAME.1 DS    CL133
&TNAME.2 DS    18F
&OUT     DCB   DDNAME=PRINTER1,                                        X
               DSORG=PS,                                               X
               MACRF=(PM)
&TNAME.3 DS    0H
         OPEN  (&OUT,(OUTPUT))          OPEN PRINT OF PANEL TRANSLATION
&TNAME.4 DS    0H
.A$99    ANOP
         STM   R0,R15,&TR0SAV
         MVI   &TRDATA,X'40'
         MVC   &TRDATA+1(132),&TRDATA
         MVC   &TRDATA+1(&PLL),=C&PL
         PUT   &OUT,&TRDATA
         LM    R0,R15,&TR0SAV
         MEXIT
.E1      MNOTE 12,'TRACE REQUIRES AN OUT DATASET'
.E2      MNOTE 12,'TRACE REQUIRES A FUNCTION PARAMETER LIST'
         MEND
