         MACRO
&NAME    TRACEDA &OUT,&PL,&FL
         AIF   (T'&OUT EQ 'O').E1
         AIF   (T'&PL EQ 'O').E2
         LCLA  &PLL
&PLL     SETA  L'&PL
         AIF   (T'&FL EQ 'O').E0
&PLL     SETA  &FL
.E0      GBLC  &TRDATA
         GBLC  &TR0SAV
         GBLB  &TDFIRST
         AIF   (&TDFIRST).A$99
&TDFIRST SETB  1
         LCLC  &TNAME
&TNAME   SETC  'TR'.'&SYSNDX'
&TRDATA  SETC  '&TNAME'.'1'
&TR0SAV  SETC  '&TNAME'.'2'
         B     &TNAME.3
&TNAME.1 DS    CL133
&TNAME.2 DS    18F
&TNAME.3 DS    0H
.A$99    ANOP
         STM   R14,R12,&TR0SAV
         MVI   &TRDATA,X'40'
         MVC   &TRDATA+1(132),&TRDATA
         MVC   &TRDATA+1(&PLL),&PL
         BAL    R14,BELOW
         PUT   &OUT,&TRDATA
         BAL    R14,ABOVE
         LM    R14,R12,&TR0SAV
         MEXIT
.E1      MNOTE 12,'TRACE REQUIRES AN OUT DATASET'
.E2      MNOTE 12,'TRACE REQUIRES A FUNCTION PARAMETER LIST'
         MEND
