         MACRO
&NAME    TRACEIT &OUT,&PL
&NAME    DS    0H
         AIF   (T'&OUT EQ 'O').E1
         AIF   (T'&PL EQ 'O').E2
         LCLA  &PLL
&PLL     SETA  K'&PL-2
         GBLB  &FIRST
         AIF   (&FIRST).INIT
&FIRST   SETB  1
         B     TR##INIT
TR##LINE DC    CL134' TRACE - '
TR##SAVE DS    4XL5
TR##ROUT DS    0H
         PUT   &OUT,TR##LINE
         MVC   TR##LINE+9(125),TR##LINE+8
         BR    R2
TR##INIT DS    0H
.INIT    ANOP
         STM   R14,R2,TR##SAVE
         MVC   TR##LINE+9(&PLL),=C&PL
         BAL   R2,TR##ROUT
         LM    R14,R2,TR##SAVE
         MEXIT
.E1      MNOTE 12,'TRACE REQUIRES AN OUT DATASET'
.E2      MNOTE 12,'TRACE REQUIRES A FUNCTION PARAMETER LIST'
         MEND
