         MACRO
&NAME    TRACER &PL
         AIF   (T'&PL EQ 'O').E1
         LCLA  &PLL
&PLL     SETA  K'&PL-2
         ST    R1,SAVER1
.MVX     MVC   LINEIO(&PLL),=C&PL
         PUT   PRINTER1,PRLINE
         MVC   LINEIO(132),SPACES
         L     R1,SAVER1
         MEXIT
.E1      MNOTE 12,'TRACE REQUIRES A FUNCTION PARAMETER LIST'
         MEND
