         MACRO
&NAME    UNPACK &REG,&PL,&OUT,&MF=,&LIST=NO,&HELP=NO
         AIF   ('&HELP' EQ 'YES').A$HELP
*---------------------------------------------------------------------*
* For a more comprehensive description of the 'UNPACK' parameters     *
* and it's use, pass parameter of 'HELP=Yes'.                         *
*---------------------------------------------------------------------*
         AGO .A$HELPE
.A$HELP  ANOP
*---------------------------------------------------------------------*
* Macro to unpack a register into a variable.                         *
*                                                                     *
*   PARAMETERS:                                                       *
*       1. Register holding contents                                  *
*       2. Length to unpack                                           *
*       3. Output field (default "upout(8)")                          *
*       4. MF=E/L for re-entrant programs.  (Not required for non     *
*          re-entrant programs.)                                      *
*       5. LIST=YES/NO, to determine generation of macro statements.  *
*                                                                     *
*   NOTE:                                                             *
*       For re-entrant programs the list format only requires the     *
*       MF= parameter,                                                *
*            eg.      UNPACK MF=L                                     *
*                                                                     *
*---------------------------------------------------------------------*
.A$HELPE ANOP
         PUSH  PRINT
         AIF   ('&LIST' NE 'NO').A$XX
         PRINT NOGEN
.A$XX    ANOP
         AIF   (T'&NAME EQ 'O').A$YY
&NAME    DS    0H
.A$YY    ANOP
         AIF   ('&MF' EQ 'L').A$ZZ
         AIF   (T'&REG EQ 'O').E1
         AIF   (T'&PL EQ 'O').E2
.A$ZZ    ANOP
         GBLC  &TNAME
         LCLC  &UPWORK,&UPOUT
         GBLB  &UNPFST1,&UNPFST2
         AIF   (&UNPFST1).A$00
&UNPFST1 SETB  1
&TNAME   SETC  'UPK'.'&SYSNDX'
.A$00    ANOP
&UPWORK  SETC  '&TNAME'.'1'
&UPOUT   SETC  '&TNAME'.'2'
         AIF   ('&MF' EQ 'E').A$99          BYPASS IF EXEC FORM OF MAC
         AIF   ('&MF' EQ 'L').A$11          BYPASS IF LIST FORM OF MAC
         AIF   (&UNPFST2).A$99
&UNPFST2 SETB  1
         B     &TNAME.3                    BRANCH AROUND DATA
.*--------------------------------------------------------------------*
.*       DATA STORAGE                                                 *
.*--------------------------------------------------------------------*
.A$11    ANOP
&UPWORK  DS    D
&UPOUT   DS    CL8
         AIF   ('&MF' EQ 'L').EXIT         BYPASS IF LIST FORM OF MAC
.*--------------------------------------------------------------------*
&TNAME.3 DS    0H
.A$99    ANOP
         CVD   &REG,&UPWORK
         OI    &UPWORK+7,X'0F'
         UNPK  &UPOUT.(8),&UPWORK+8-&PL.(&PL.)
         AIF   (T'&OUT EQ 'O').EXIT
         MVC   &OUT.(&PL.),&UPOUT+8-&PL.
         AGO   .EXIT
.*--------------------------------------------------------------------*
.E1      MNOTE 12,'UNPACK REQUIRES SOURCE A REGISTER'
         AGO   .EXIT
.*--------------------------------------------------------------------*
.E2      MNOTE 12,'UNPACK REQUIRES A LENGTH'
.*--------------------------------------------------------------------*
.EXIT    ANOP
         POP   PRINT
         MEXIT
         MEND
