         MACRO
*---------------------------------------------------------------------*
*   PARAMETERS:                                                       *
*       1. DESTINATION ADDRESS                                        *
*       2. ROW NUMBER                                                 *
*       3. COLLUMN                                                    *
*   FORMULAE:  ((R-1)*80+(C-1))/64   QOUTIENT  => ROW DISP IN TABLE   *
*                                    REMAINDER => COL DISP IN TABLE   *
*---------------------------------------------------------------------*
&NAME    WCCDCV &OUT,&WRITE,&AKBMTD
         LCLC  &WCC
         AIF   (T'&WRITE EQ 'O').E1
         AIF   (T'&WRITE EQ 'O').WRW            WRITE OMITTED
         AIF   ('&WRITE' EQ 'W').WRW            WRITE = WRITE
         AIF   ('&WRITE' EQ 'EW').WRE           WRITE = ERASE/WRITE
         AIF   ('&WRITE' EQ 'EWA').WRA          WRITE = ERASE/WRITE ALT
         AGO   .E1
.WRW     ANOP
&WCC     SETC  'F1'
         AGO   .DEFREST
.WRE     ANOP
&WCC     SETC  'F5'
         AGO   .DEFREST
.WRA     ANOP
&WCC     SETC  '7E'
.DEFREST ANOP
         AIF   (T'&AKBMTD EQ 'O').WCCNYY
         AIF   ('&AKBMTD' EQ 'YYY').WCCYYY
         AIF   ('&AKBMTD' EQ 'YYN').WCCYYN
         AIF   ('&AKBMTD' EQ 'YNY').WCCYNY
         AIF   ('&AKBMTD' EQ 'YNN').WCCYNN
         AIF   ('&AKBMTD' EQ 'NYY').WCCNYY
         AIF   ('&AKBMTD' EQ 'NYN').WCCNYN
         AIF   ('&AKBMTD' EQ 'NNY').WCCNNY
         AIF   ('&AKBMTD' EQ 'NNN').WCCNNN
         AGO   .E2
.WCCYYY  ANOP
&WCC     SETC  '&WCC.C7'
         AGO   .PUTWCC
.WCCYYN  ANOP
&WCC     SETC  '&WCC.C6'
         AGO   .PUTWCC
.WCCYNY  ANOP
&WCC     SETC  '&WCC.C5'
         AGO   .PUTWCC
.WCCYNN  ANOP
&WCC     SETC  '&WCC.C4'
         AGO   .PUTWCC
.WCCNYY  ANOP
&WCC     SETC  '&WCC.C3'
         AGO   .PUTWCC
.WCCNYN  ANOP
&WCC     SETC  '&WCC.C2'
         AGO   .PUTWCC
.WCCNNY  ANOP
&WCC     SETC  '&WCC.C1'
         AGO   .PUTWCC
.WCCNNN  ANOP
&WCC     SETC  '&WCC.40'
.PUTWCC  ANOP
         MVC   &OUT.(2),=X'&WCC'
         MEXIT
.E1      MNOTE 12,'VALID WRITES ARE "W/EW/EWA.'
.E2      MNOTE 12,'WCC NEEDS "Y/N" FOR ALARM, RESTORE KB + RESET MTD.'
         MEND
