         MACRO ,                                                  ONL11
&NAME    QSTOP &RC=                                               ONL11
&NAME    L     R13,4(,R13)         ADDR OF CALLER'S SAVE AREA     ONL11
         AIF   (T'&RC EQ 'O').NORC                                ONL11
         RETURN (14,12),T,RC=&RC   RETURN TO CALLER               ONL11
         MEXIT ,                                                  ONL11
.NORC    ANOP  ,                                                  ONL11
         LM    R14,R12,12(R13)     RESTORE CALLER'S REGISTERS     ONL11
         MVI   12(R13),X'FF'       SET RETURN INDICATION          ONL11
         BR    R14                 RETURN TO CALLER               ONL11
         MEND  ,                                                  ONL11
