         MACRO
&NAME    MSG   &TEXT
         LCLA  &LEN
&LEN     SETA  (K'&TEXT)-2
&NAME    DS    0C
         DC    AL2(&LEN)           LENGTH OF MESSAGE
         DC    C&TEXT              MESSAGE
         MEND
* ------------------------------------------------------------------- *
*                                                                     *
*              DYNAMIC ALLOCATION ROUTINE  (DAIR) INTERFACE           *
*                                                                     *
*      THIS MODULE INTERFACES WITH THE SYSTEM DYNAMIC ALLOCATION      *
*      ROUTINES (DAIR).  A REQUEST MUST SPECIFY THE TYPE OF ALLOCATE  *
*      (UNIT IS ONLY TYPE SO FAR) AND ASSOCIATED PARAMETERS.          *
*      WHEN A DEVICE IS ALLOCATED, IT IS ADDED TO A CHAIN ANCHORED    *
*      IN 'DITTCOMM'.  THIS MODULE ACQUIRES STORAGE FOR THE DCB,      *
*      IOB, ECB, AND CCW'S.  THIS STORAGE IS MAPPED BY THE 'DYNBLOK'  *
*      DSECT.                                                         *
*                                                                     *
*      ON DE-ALLOCATION REQUESTS THE DYNAMIC BLOCK IS LOCATED ON THE  *
*      CHAIN, THE DCB IS "CLOSED", THE UNIT DE-ALLOCATED, AND THE     *
*      CONTROL BLOCK STORAGE IS FREED.                                *
*                                                                     *
* ------------------------------------------------------------------- *
DITTDAIR DITTPRFX DAIRSAVE,'DYNAMIC ALLOCATION INTERFACE'
         LR    R10,R1              SAVE PARAMETER BLOCK ADDRESS
         USING DAIRBLOK,R10        ADDRESS IT
         USING DITTCOMM,R11        SPECIFY BASE
         DITTRACE ID=ENTRY,        TRACE ENTRY                         +
               DATA1=DAIRCMMD,     .. CAPTURE COMMAND                  +
               DATA2=DAIRCUU       .. CAPTURE CUU
         MVI   DAIRSTAT,$DAIRSOK   CLEAR STATUS BYTE
         TM    DAIRTYPE,$DAIRCUU   UNIT ALLOCATION/DEALLOCATION?
         BNO   DAIR2040            NO... INVALID TYPE
         ICM   R6,15,COMMDYHD      POINT TO HEAD OF CHAIN
         USING DYNBLOK,R6          SPECIFY BASE
DAIR0010 DS    0H
         BZ    DAIR0030            NO DYNAMIC BLOCK FOR THIS CUU
         CLC   DYNCUU,DAIRCUU      CORRECT UNIT?
         BE    DAIR0020            YES
         ICM   R6,15,DYNNEXT       LOAD ADDRESS OF NEXT BLOCK
         B     DAIR0010            LOOP
DAIR0020 DS    0H
         DITTRACE ID=DYNLOC,       DYN BLOCK LOCATED                   +
               RDATA1=R6           CAPTURE DYNBLOK ADDRESS
         CLI   DAIRCMMD,$DAIRACQ   ALLOCATE REQUEST?
         BE    DAIR2050            YES .. ALREADY ALLOCATED
         CLI   DAIRCMMD,$DAIRREL   RELEASE REQUEST
         BE    DAIR0600            YES
         CLI   DAIRCMMD,$DAIRLOC   LOCATE REQUEST?
         BNE   DAIR2010            INVALID REQUEST
         STCM  R6,15,DAIRAREA      RETURN ADDRESS OF DYNAMIC BLOCK
         MVI   DAIRSTAT,$DAIRSOK   GOOD STATUS
         B     DAIR9900            EXIT TO CALLER
DAIR0030 DS    0H
         DITTRACE ID=NODYN         DYN BLOCK NOT LOCATED
         CLI   DAIRCMMD,$DAIRREL   RELEASE REQUEST?
         BE    DAIR2000            YES .. NOT LOCATED
         CLI   DAIRCMMD,$DAIRLOC   LOCATE REQUEST?
         BE    DAIR2000            YES .. NOT LOCATED
         CLI   DAIRCMMD,$DAIRACQ   ALLOCTE REQUEST?
         BNE   DAIR2010            NO .. INVALID REQUEST
         DITTRACE ID=NEWALLOC      TRACE NEW ALLOCATION REQUESTS
         XC    UCBTOKEN,UCBTOKEN   CLEAR THE TOKEN
         XC    UCBWORK,UCBWORK     CLEAR THE WORK AREA TOO
* ------------------------------------------------------------------- *
*                                                                     *
*        LOCATE THE UCB                                               *
*                                                                     *
* ------------------------------------------------------------------- *
DAIR0040 DS    0H
         DITTRACE ID=UCBSCAN,                                          +
               DATA1=UCBADDR,                                          +
               DATA2=UCBTOKEN
         SR    R1,R1               'TURN ON' REQUEST
         L     R15,AAUTH           DITTAUTH ENTRY POINT
         BALR  R14,R15             LINK TO DITTAUTH
         MODESET MODE=SUP,         ENTER SUPERVISOR STATE, KEY ZERO    +
               KEY=ZERO
         UCBSCAN ADDRESS,          LOCATE UCB, RETURN ITS ADDRESS      +
               UCBPTR=UCBADDR,     .. RETURNED ADDRESS                 +
               WORKAREA=UCBWORK,   .. WORK AREA                        +
               DYNAMIC=YES,        .. INCLUDE DYNAMICALLY ADDED        +
               PIN,                .. DON'T LET ANYONE DELETE IT       +
               TEXT=UCBTEXT,       .. REASON FOR PIN                   +
               PTOKEN=UCBTOKEN     .. TOKEN
         LR    R2,R15              SAVE UCBSCAN RC
         DITTRACE ID=UCB_RC,                                           +
               RDATA1=R2
         MODESET MODE=PROB,        PROBLEM STATE, USER KEY             +
               KEY=NZERO
         LA    R1,1                'TURN OFF' REQUEST
         L     R15,AAUTH           DITTAUTH ENTRY POINT
         BALR  R14,R15             LINK TO DITTAUTH
         LTR   R2,R2               END OF DEVICES?
         BNZ   DAIR2020            YES.. NOT VALID
         ICM   R5,15,UCBADDR       UCB ADDRESS
         USING UCBOB,R5            ADDRESS UCB
         DITTRACE ID=UCB,          TRACE EACH UCB EXAMINED             +
               RDATA1=R5,          .. UCB BLOCK ADDRESS                +
               DATA2=UCBCHAN       .. DEVICE ADDRESS (NAME)
         CLC   DAIRCUU,UCBCHAN     CORRECT DEVICE?
         BNE   DAIR0040            NO
DAIR0050 DS    0H
         DITTRACE ID=UCBLOC,       TRACE UCB HAS BEEN LOCATED          +
               RDATA1=R5,          .. CAPTURE UCB ADDRESS              +
               DATA2=UCBTBYT3      .. CAPTURE UNIT TYPE
DAIR0060 DS    0H
         TM    UCBSTAT,UCBONLI     IS DEVICE ONLINE?
         BNO   DAIR2060            NO
         TM    UCBTBYT3,UCB3DACC   IS THIS A DASD UNIT?
         BO    DAIR0170            YES
         TM    UCBSTAT,UCBALOC     IS DEVICE ALREADY ALLOCATED?
         BO    DAIR2070            YES
         TM    UCBTBYT3,UCB3TAPE   IS THIS A TAPE UNIT?
         BO    DAIR0070            YES
         B     DAIR2030            DEVICE TYPE IS NOT ALLOWED
DAIR0070 DS    0H
         DITTRACE ID=ALOCTAPE      ALLOCATING A TAPE UNIT
         CLI   UCBTBYT4,UCB3480    IS THIS A 3480?
         BE    DAIR0140            YES
         DITTRACE ID=ALOC3420      ALLOCATE REQUESTED FOR A 3420
         TM    COMMPFLG,$COMMDEN   WAS A DENSITY REQUESTED?
         BO    DAIR0100            YES
         TM    UCBTBYT1,UCBD6250   6250 BPI DRIVE?
         BO    DAIR0080            YES
         TM    UCBTBYT2,UCBDUDN2   1600 AND 6250?
         BO    DAIR0080            YES.. GO WITH 6250
         TM    UCBTBYT1,UCBD1600   1600 BPI DRIVE?
         BO    DAIR0090            YES
         TM    UCBTBYT2,UCBDUDN1   800 AND 1600?
         BO    DAIR0090            YES
         DITTRACE ID=UNSP3420      UNSUPPORTED 3420
         MVI   DAIRSTAT,$DAIRSUD   UNSUPPORTED 3420 (NOT 1600 OR 6250)
         B     DAIR9900            AND EXIT
DAIR0080 DS    0H
         DITTRACE ID=DFLT6250      SETTING DENSITY TO 6250 BY DEFAULT
         MVI   COMMDEN,$DEN6250    SET 6250 DENSITY
         B     DAIR0160            ALLOCATE THE DEVICE
DAIR0090 DS    0H
         DITTRACE ID=DFLT1600      SETTING DENSITY TO 1600 BY DEFAULT
         MVI   COMMDEN,$DEN1600    SET 1600 DENSITY
         B     DAIR0160            ALLOCATE THE DEVICE
DAIR0100 DS    0H
         DITTRACE ID=CHECKDEN      CHECK DENSITY
         CLI   COMMDEN,$DEN6250    6250 BPI REQUESTED?
         BE    DAIR0120            YES
         DITTRACE ID=CHK1600       CHECKING 1600
         TM    UCBTBYT1,UCBD1600   1600 BPI DRIVE?
         BO    DAIR0110            YES... VALID REQUEST
         TM    UCBTBYT2,UCBDUDN1   800/1600 BPI DRIVE?
         BO    DAIR0110            YES... VALID REQUEST
         TM    UCBTBYT2,UCBDUDN2   1600/6250 BPI DRIVE?
         BO    DAIR0110            YES... VALID REQUEST
         DITTRACE ID=1600INV       DRIVE WILL NOT ALLOW 1600
         MVI   DAIRSTAT,$DAIRS16   DRIVE WILL NOT ALLOW 1600
         B     DAIR9900            EXIT
DAIR0110 DS    0H
         DITTRACE ID=1600OK        1600 IS A-OK
         MVI   COMMDEN,$DEN1600    SET 1600 BPI
         B     DAIR0160            ALLOCATE THE DRIVE
DAIR0120 DS    0H
         DITTRACE ID=CHK6250       CHECKING 6250
         TM    UCBTBYT1,UCBD6250   6250 BPI DRIVE?
         BO    DAIR0130            YES... VALID REQUEST
         TM    UCBTBYT2,UCBDUDN2   1600/6250 BPI DRIVE?
         BO    DAIR0130            YES.. VALID REQUEST
         DITTRACE ID=6250INV       DRIVE WILL NOT ALLOW 6250
         MVI   DAIRSTAT,$DAIRS62   DRIVE WILL NOT ALLOW 6250
         B     DAIR9900            EXIT
DAIR0130 DS    0H
         DITTRACE ID=6250OK        6250 IS A-OK
         MVI   COMMDEN,$DEN6250    SET DENSITY TO 6250
         B     DAIR0160            ALLOCATE THE DRIVE
DAIR0140 DS    0H
         DITTRACE ID=ALOC3480
         TM    COMMPFLG,$COMMDEN   WAS DENSITY SPECIFIED?
         BNO   DAIR0150            NO.. GOOD (NOT ALLOWED ON 3480'S)
         MVI   DAIRSTAT,$DAIRSD1   DENSITY MAY NOT BE SPECIFIED
         B     DAIR9900            EXIT
DAIR0150 DS    0H
         DITTRACE ID=3480OK        3480 DENSITY OK
         MVI   COMMDEN,$DEN3480    SET 3480 DENSITY
* ------------------------------------------------------------------- *
*                                                                     *
*       CONSTRUCT SVC99 PARAMETER LIST FOR TAPE ALLOCATION            *
*                                                                     *
* ------------------------------------------------------------------- *
DAIR0160 DS    0H
         DITTRACE ID=TAPE99
         MVC   SVC99DDN(4),DAIRTAPE MOVE 'TAPE'
         UNPK  COMMDWRD(5),DAIRCUU(3) UNPACK CUU
         MVZ   COMMDWRD(4),DAIR0F0F   TURN OFF ZONES
         TR    COMMDWRD(4),DAIRHXCH   TRANSLATE TO CHARACTER
         MVC   SVC99DDN+4(4),COMMDWRD MOVE UNPACKED CUU
         MVC   SVC99DSN,COMMBLKS      INITIALIZE DATASET NAME
         MVC   SVC99DSN(L'SVC99DDN),SVC99DDN
         MVC   SVC99UTX,COMMBLKS   INITIALIZE UNIT NAME
         MVC   SVC99UTX(3),COMMDWRD+1 MOVE CUU TO 'UNIT'
         MVI   SVC99STT,4          INITIAL STATUS 'NEW'
         XC    SVC99P1A(SVC99PL),SVC99P1A
         LA    R1,SVC99RB          DYNALLOC REQUEST BLOCK
         USING S99RB,R1            DEFINE DSECT BASE
         MVI   S99VERB,S99VRBAL    MOVE 'ALLOCATE' VERB
         LA    R1,SVC99DD          DD NAME ADDRESS
         ST    R1,SVC99P1A         STORE THE ADDRESS
         LA    R1,SVC99DS          DSN NAME ADDRESS
         ST    R1,SVC99P2A         STORE THE ADDRESS
         LA    R1,SVC99UT          UNIT NAME ADDRESS
         ST    R1,SVC99P3A         STORE THE ADDRESS
         LA    R1,SVC99ST          INITIAL STATUS (NEW)
         ST    R1,SVC99P4A         STORE THE ADDRESS
         LA    R1,SVC99DP          NORMAL TERMINATION DISP (KEEP)
         ST    R1,SVC99P5A         STORE THE ADDRESS
         LA    R1,SVC99DFP         DEFERRED MOUNT
         ST    R1,SVC99P6A         STORE THE ADDRESS
         OI    SVC99P6A,X'80'      SET END OF LIST
         BAL   R9,DAIR1000         LINK TO SVC99 ROUTINE
         CLI   DAIRSTAT,$DAIRSOK   SVC99 A-OK?
         BE    DAIR0180            YES, CONTINUE
         DITTRACE ID=TAPEFAIL      TRACE TAPE ALLOCATION FAILURE
         B     DAIR9900            GO TO ERROR ROUTINE
* ------------------------------------------------------------------- *
*                                                                     *
*       CONSTRUCT SVC99 PARAMETER LIST FOR DASD ALLOCATION            *
*                                                                     *
* ------------------------------------------------------------------- *
DAIR0170 DS    0H
         DITTRACE ID=DASD99
         TM    COMMPFLG,$COMMDEN   WAS A DENSITY REQUESTED?
         BO    DAIR2080            YES.. NOT ALLOWED ON DASD
         UNPK  COMMDWRD(5),DAIRCUU(3) UNPACK CUU
         MVZ   COMMDWRD(4),DAIR0F0F   TURN OFF ZONES
         TR    COMMDWRD(4),DAIRHXCH   TRANSLATE TO CHARACTER
         MVC   SVC99DDN(4),DAIRDASD MOVE 'DASD'
         MVC   SVC99DDN+4(4),COMMDWRD MOVE UNPACKED CUU
         MVC   SVC99UTX,SYSALLDA   SET UNIT NAME
         MVC   SVC99VLX,UCBVOLI    SET VOLSER
         MVI   SVC99STT,1          INITIAL STATUS 'OLD'
         XC    SVC99P1A(SVC99PL),SVC99P1A
         LA    R1,SVC99RB          DYNALLOC REQUEST BLOCK
         USING S99RB,R1            DEFINE DSECT BASE
         MVI   S99VERB,S99VRBAL    MOVE 'ALLOCATE' VERB
         LA    R1,SVC99DD          DD NAME ADDRESS
         ST    R1,SVC99P1A         STORE THE ADDRESS
         LA    R1,SVC99UT          UNIT NAME ADDRESS
         ST    R1,SVC99P2A         STORE THE ADDRESS
         LA    R1,SVC99VOL         VOLSER ADDRESS
         ST    R1,SVC99P3A         STORE THE ADDRESS
         LA    R1,SVC99ST          INITIAL STATUS (OLD)
         ST    R1,SVC99P4A         STORE THE ADDRESS
         OI    SVC99P4A,X'80'      SET END OF LIST
         BAL   R9,DAIR1000         LINK TO SVC99 ROUTINE
         CLI   DAIRSTAT,$DAIRSOK   SVC99 A-OK?
         BE    DAIR0180            YES, CONTINUE
         DITTRACE ID=DASDFAIL      TRACE DASD ALLOCATION FAILURE
         B     DAIR9900            GO TO ERROR ROUTINE
* ------------------------------------------------------------------- *
*                                                                     *
*        INITIALIZE DYNAMIC BLOCK                                     *
*                                                                     *
* ------------------------------------------------------------------- *
DAIR0180 DS    0H
         DITTRACE ID=UNITOK        TRACE SUCESSFUL DAIR CALLS
         LA    R1,COMMDYHD         SAVE LAST BLOCK ADDRESS
         ICM   R6,15,COMMDYHD      HEAD OF CHAIN
DAIR0190 DS    0H
         BZ    DAIR0200            END OF CHAIN FOUND
         LR    R1,R6               SAVE LAST BLOCK ADDRESS
         ICM   R6,15,DYNNEXT       NEXT BLOCK
         B     DAIR0190            LOOP
DAIR0200 DS    0H
         LR    R6,R1               RESTORE BASE REG
         LA    R0,DYNBLOKL         LENGTH OF DYNAMIC BLOCK
         GETMAIN R,LV=(0)          ACQUIRE STORAGE FOR DYNAMIC BLOCK
         DITTRACE ID=DYNGETM,      TRACE DYNAMIC BLOCK ACQUIRED        +
               RDATA1=R2           .. SAVE DYNBLOCK ADDRESS
         LR    R2,R1               SAVE STORAGE ADDRESS
         LR    R0,R1               COPY STORAGE ADDRESS
         LA    R1,DYNBLOKL         STORAGE SIZE
         SR    R15,R15             SECOND LENGTH = 0
         MVCL  R0,R14              CLEAR THE STORAGE
         ST    R2,DYNNEXT          CHAIN TO NEXT BLOCK
         DROP  R6
         USING DYNBLOK,R2          SWAP BASE
         ST    R6,DYNPREV          CHAIN BACKWARD
         LR    R6,R2               LOAD PERM BASE REG
         STCM  R6,15,DAIRAREA      PASS BLOCK ADDRESS BACK
         DROP  R2
         USING DYNBLOK,R6          RESTORE BASE
         GETMAIN RU,LV=128         ACQUIRE STORAGE FOR DEB
         ST    R1,DYNDEBA          SAVE DEB STORAGE ADDRESS
         LR    R7,R1               SAVE DEB STORAGE ADDRESS
         DITTRACE ID=DEBGETM,      TRACE DEB STORAGE ACQUIRED          +
               RDATA1=R7           .. SAVE STORAGE ADDRESS
         LA    R3,DYNIOB           IOB IN DYNAMIC BLOCK
         LA    R4,DYNDCB           DCB IN DYNAMIC BLOCK
* ------------------------------------------------------------------- *
*                                                                     *
*          REGISTERS AT THIS TIME:                                    *
*                                                                     *
*             R3  IOB STORAGE WITHIN DYNAMIC BLOCK                    *
*             R4  DCB STORAGE WITHIN DYNAMIC BLOCK                    *
*             R5  UCB ADDRESS OF DEVICE ALLOCATED                     *
*             R6  DYNAMIC BLOCK ADDRESS                               *
*             R7  DEB STORAGE ADDRESS                                 *
*                                                                     *
* ------------------------------------------------------------------- *
         MVC   DYNCUU,DAIRCUU      MOVE CUU
         MVC   DYNVOL,UCBVOLI      COPY VOLSER
* ------------------------------------------------------------------- *
*           INITIALIZE IOB                                            *
* ------------------------------------------------------------------- *
         USING IOB,R3
         USING IHADCB,R4                DEFINE BASE
         USING DEB,R7
         MVI   IOBFLAG1,X'02'      SET FLAG BYTE 1
         ST    R4,IOBDCBPT         SET DCB ADDRESS
* ------------------------------------------------------------------- *
*           INITIALIZE DCB                                            *
* ------------------------------------------------------------------- *
         TM    UCBTBYT3,UCB3DACC   DASD UNIT?
         BO    DAIR0210            YES
         MVC   DYNDCB(DYNDCBL),TAPEDCB  INITIALIZE THE DCB
         B     DAIR0220
DAIR0210 DS    0H
         MVC   DYNDCB(DYNDCBL),DASDDCB  INITIALIZE THE DCB
DAIR0220 DS    0H
         MVC   DCBDDNAM,SVC99DDN   SET DDNAME USED
         MVC   DYNDDNAM,SVC99DDN   SET DDNAME USED
         LA    R1,DEBBASIC         DEB BASIC SECTION ADDRESS
         ST    R1,DCBDEBAD         INSERT DEB ADDRESS
         ST    R3,DCBIOBA          INSERT IOB ADDRESS
         MVC   DCBMACRF,DCBMACR    COPY DCB MACRO FORMAT PARAMETERS
         MVC   DCBIFLGS,DCBIFLG    COPY I/O ERROR FLAGS
         OI    DCBOFLGS,DCBOFOPN   INDICATE DCB IS OPEN
* ------------------------------------------------------------------- *
*           INITIALIZE DEB                                            *
* ------------------------------------------------------------------- *
         XC    DEBPREFX(DEBPREFE-DEBPREFX),DEBPREFX  CLEAR PREFIX
         XC    DEBBASIC(DEBBASND-DEBBASIC),DEBBASIC  CLEAR BASIC
         USING PSA,R0              DEFINE PSA BASE
         MVC   DEBTCBAD,PSATNEW    SET TCB ADDRESS
         MVI   DEBAMLNG,16         SET ACCESS METHOD SECTION LENGTH
         MVI   DEBOFLGS,DEBDSOLD   DISPOSITION 'OLD'
         MVI   DEBOPATB,DEBLEAVE+DEBOUTPT
         MVI   DEBNMEXT,1          SET NUMBER OF EXTENTS
         MVI   DEBPRIOR,X'EB'      SET PRIORITY
         ST    R4,DEBDCBAD         INSERT ASSOCIATED DCB ADDRESS
         MVI   DEBDEBID,X'0F'      IDENTIFY THIS AS A DEB
         ST    R5,DEBSUCBA         UCB ASSOCIATED
         L     R1,CVTPTR           CVT ADDRESS
         USING CVT,R1              DEFINE CVT BASE
         MVC   DEBAPPAD,CVTXAPG    SET I/O APPENDAGE VECTOR TABLE ADDR
         TM    UCBTBYT3,UCB3DACC   DASD UNIT?
         BO    DAIR0230            YES
         MVC   DEBSDVM,COMMDEN     SET DENSITY
         B     DAIR0240
DAIR0230 DS    0H
         MVI   DEBEXSCL,4          SET EXTENT SCALE
         LA    R1,DEBBASND         DASD EXTENTION TO DEB
         USING DEBDASD,R1          DEFINE BASE
         XC    DEBDASD(DEBDASDE-DEBDASD),DEBDASD
         MVI   DEBDVMOD,X'D8'      SET FILE MASK
         STCM  R5,7,DEBUCBA        SET UCB ADDRESS
         MVC   DEBENDCC,XFFFF      SET TO HIGH VALUE
         MVC   DEBNMTRK,XFFFF      SET TO HIGH VALUE
* ------------------------------------------------------------------- *
*           ADD DEB TO DEBCHAIN FROM TCB AND TO DEBTABLE              *
* ------------------------------------------------------------------- *
DAIR0240 DS    0H
         AGO   .A
         DITTRACE ID=ADDDEB        ADDING DEB TO DEBTABLE
         CLI   COMMENV,$ENVTSO     TSO ENVIRONMENT?
         BNE   DAIR0250            NO
         SR    R1,R1               'TURN ON' REQUEST
         L     R15,AAUTH           DITTAUTH ENTRY POINT
         BALR  R14,R15             LINK TO DITTAUTH
DAIR0250 DS    0H
         MODESET MODE=SUP,KEY=ZERO SWITCH TO SUPERVISOR STATE, KEY ZERO
         USING PSA,R0              DEFINE PSA BASE
         L     R1,PSATNEW          OUR TCB ADDRESS FROM THE PSA
         USING TCB,R1              DEFINE BASE
         L     R15,TCBDEB          FIRST DEB ON DEB CHAIN
         LA    R2,DEBBASIC         'BASIC' PORTION OF DEB
DAIR0260 DS    0H
         STCM  R15,7,DEBDEBB       INSERT PREVIOUS ADDRESS INTO OUR DEB
         CS    R15,R2,TCBDEB       ADD OUR DEB TO CHAIN
         BNE   DAIR0260            UNSUCCESSFUL... TRY AGAIN
         DEBCHK (R4),              USE DEBCHK (REFERENCE DCB NOT DEB)  +
               AM=EXCP,            .. EXCP ACCESS METHOD               +
               TYPE=ADD            .. ADD A DEB TO DEBTABLE
         LR    R2,R15              SAVE RETURN CODE
         MODESET MODE=PROB,KEY=NZERO    PROBLEM STATE, PROBLEM KEY
         CLI   COMMENV,$ENVTSO     TSO ENVIRONMENT?
         BNE   DAIR0270            NO
         LA    R1,1                'TURN OFF' REQUEST
         L     R15,AAUTH           DITTAUTH ENTRY POINT
         BALR  R14,R15             LINK TO DITTAUTH
DAIR0270 DS    0H
         DITTRACE ID=DEBCHK,       TRACE DEBCHK STATUS                 +
               RDATA1=R2           .. SAVE RETURN CODE
         LTR   R2,R2               DEBCHK SUCCESFUL?
         BNZ   DAIR0330            NO
         DITTRACE ID=DEBDONE       TRACE SUCCESSFUL COMPLETION
.A       ANOP
         CLC   DAIRDASD,DYNDDNAM   DASD?
         BE    DAIR0320
         CLI   COMMDEN,$DEN1600    1600 BPI?
         BE    DAIR0280            YES
         CLI   COMMDEN,$DEN6250    6250 BPI?
         BE    DAIR0300            YES
         B     DAIR9900            EXIT
DAIR0280 DS    0H
         CLI   COMMENV,$ENVTSO     TSO ENVIRONMENT?
         BE    DAIR0290            YES
         MVC   PRTDATA(DAIRM01L),DAIRM01
         BAL   R14,PRT0000         PRINT DENSITY MESSAGE
         CLI   COMMENV,$ENVJOB     RUNNING AS A JOB?
         BE    DAIR9900            YES
         WTO   'DRIVE ALLOCATED WITH DENSITY 1600 BPI',                +
               CONSNAME=COMMCNAM
         B     DAIR9900            EXIT
DAIR0290 DS    0H
         MVC   MSG01(DAIRM01L),DAIRM01 MOVE MESSAGE
         B     DAIR9900            AND EXIT
DAIR0300 DS    0H
         CLI   COMMENV,$ENVTSO     TSO ENVIRONMENT?
         BE    DAIR0310            YES
         MVC   PRTDATA(DAIRM02L),DAIRM02
         BAL   R14,PRT0000         PRINT DENSITY MESSAGE
         CLI   COMMENV,$ENVJOB     RUNNING AS A JOB?
         BE    DAIR9900            YES
         WTO   'DRIVE ALLOCATED WITH DENSITY 6250 BPI',                +
               CONSNAME=COMMCNAM
         B     DAIR9900            EXIT
DAIR0310 DS    0H
         MVC   MSG01(DAIRM02L),DAIRM02 MOVE MESSAGE
         B     DAIR9900            AND EXIT
* ------------------------------------------------------------------  *
*    CALL DASD MODULE TO INTIALIZE VOLSER AND MAX CYLINDER AND HEAD.  *
*                                                                     *
*    NOTE ALSO THAT AT THIS TIME, DAIR WILL HAVE BEEN CALLED BY       *
*    'DITTALOC' WHILE 'DITTALOC' IS RUNNING AS THE INPUT MODULE AND   *
*    ONLY WHEN THE 'FIRST PASS' FLAG IS ON.  WHEN 'FIRST PASS' FLAG   *
*    IS ON AND THE VOLSER IN THE DYNBLOCK IS BLANK, 'DITTDAI1' ONLY   *
*    DOES THE INITIALIZATION PORTION OF ITS PROCESSING.               *
*                                                                     *
* ------------------------------------------------------------------  *
DAIR0320 DS    0H
         ST    R6,COMMIND          SET DYNAMIC BLOCK ADDRESS FOR 'DAI1'
         L     R15,ADAI1           DASD READER ENTRY POINT
         BALR  R14,R15             LINK TO DASD MODULE FOR INITIALIZE
         B     DAIR9900            AND EXIT
DAIR0330 DITTRACE ID=DEBAFAIL,     TRACE DEB ADD FAILURES              +
               RDATA1=R2           .. CAPTURE DEBCHK RETURN CODE
         ABEND ABEND015,DUMP,,USER
* ------------------------------------------------------------------- *
*                                                                     *
*              RELEASE DYNAMICALLY ALLOCATED RESOURCES                *
*                                                                     *
* ------------------------------------------------------------------- *
DAIR0600 DS    0H
         DITTRACE ID=UNITFREE      TRACE DE-ALLOCATIONS
DAIR0610 DS    0H
         LA    R4,DYNDCB           DCB FOR THIS UNIT
         USING IHADCB,R4           DEFINE DSECT BASE
         AGO   .B
         CLI   COMMENV,$ENVTSO     TSO ENVIRONMENT?
         BNE   DAIR0620            NO
         SR    R1,R1               'TURN ON' REQUEST
         L     R15,AAUTH           DITTAUTH ENTRY POINT
         BALR  R14,R15             LINK TO DITTAUTH
DAIR0620 DS    0H
         MODESET MODE=SUP,KEY=ZERO SWITCH TO SUPERVISOR STATE, KEY ZERO
         DEBCHK (R4),              USE DEBCHK (REFERENCE DCB NOT DEB)  +
               TYPE=DELETE         .. TO DELETE THE DEB FROM DEBTABLE
         LR    R2,R15              SAVE RETURN CODE
         DITTRACE ID=DEBDEL,       TRACE DEB DELETIONS                 +
               RDATA1=R2           .. CAPTURE RETURN CODE
         LTR   R2,R2               DEBCHK SUCCESSFUL?
         BNZ   DAIR0710            NO
DAIR0630 DS    0H
         L     R7,DYNDEBA          DEB ADDRESS IN THIS DYN BLOCK
         LA    R2,DEBBASIC         BASIC PORTION OF DEB
         L     R1,PSATNEW          CURRENT TCB ADDRESS FROM PSA
         USING TCB,R1              DEFINE DCB BASE
         SR    R3,R3               CLEAR REGISTER
         ICM   R3,7,TCBDEB+1       1ST DEB ON DEB CHAIN
         LA    R4,TCBDEB           ADDRESS'S ADDRESS
DAIR0640 DS    0H
         DITTRACE ID=DAIR0640,     TRACE POINT                         +
               RDATA1=R3,          .. SAVE DEB'S ADDRESS               +
               RDATA2=R4           .. SAVE ADDRESS'S ADDRESS
         CR    R3,R2               IS THIS THE CORRECT DEB?
         BE    DAIR0660            YES
         LA    R4,DEBDEBAD-DEBBASIC(R3)   NEXT DEB ADDRESS ADDRESS
         ICM   R3,7,DEBDEBB-DEBBASIC(R3)  NEXT DEB
         BNZ   DAIR0640            CHECK AGAIN
         MODESET MODE=PROB,KEY=NZERO
         CLI   COMMENV,$ENVTSO     TSO ENVIRONMENT?
         BNE   DAIR0650            NO
         LA    R1,1                'TURN OFF' REQUEST
         L     R15,AAUTH           DITTAUTH ENTRY POINT
         BALR  R14,R15             LINK TO DITTAUTH
DAIR0650 DS    0H
         DITTRACE ID=LOSTDEB       COULDN'T FIND THE DEB
         ABEND ABEND016,DUMP,,USER
DAIR0660 DS    0H
         ICM   R2,7,DEBDEBB        NEXT DEB ON CHAIN
         ICM   R2,8,0(R4)          SAVE ACCESS METHOD SECTION LENGTH
         ICM   R3,15,0(R4)         CS WILL USE ALL 4 BYTES
         DITTRACE ID=DAIR0660,     TRACE POINT                         +
               RDATA1=R2,          .. 'NEXT' DEB'S ADDRESS             +
               RDATA2=R3           .. 'DEBDEBAD' IN PREVIOUS DEB
         CS    R3,R2,0(R4)         REMOVE DEB FROM DEB CHAIN
         BNE   DAIR0630            SOMETHING CHANGED, TRY AGAIN
         MODESET MODE=PROB,        RETURN TO OUR NORMAL SELF           +
               KEY=NZERO
         CLI   COMMENV,$ENVTSO     TSO ENVIRONMENT?
         BNE   DAIR0670            NO
         LA    R1,1                'TURN OFF' REQUEST
         L     R15,AAUTH           DITTAUTH ENTRY POINT
         BALR  R14,R15             LINK TO DITTAUTH
.B       ANOP
DAIR0670 DS    0H
         L     R1,DYNDEBA          DEB STORAGE ADDRESS
         FREEMAIN R,               FREE DEB STORAGE                    +
               A=(1),                                                  +
               LV=128
         LA    R1,SVC99RB          DYNALLOC REQUEST BLOCK
         USING S99RB,R1            DEFINE DSECT BASE
         MVI   S99VERB,S99VRBUN    MOVE 'DE-ALLOCATE' VERB
         MVC   SVC99DDN,DYNDDNAM   MOVE DD NAME
         XC    SVC99P1A(SVC99PL),SVC99P1A
         LA    R1,SVC99DD          DD NAME ADDRESS
         ST    R1,SVC99P1A         STORE THE ADDRESS
         OI    SVC99P1A,X'80'      SET END OF LIST
         BAL   R9,DAIR1000         INVOKE DYNAMIC ALLOCATION ROUTINES
         CLI   DAIRSTAT,$DAIRSOK   DAIR SUCCESSFUL?
         BE    DAIR0680            YES, CONTINUE
         DITTRACE ID=RELFAIL       TRACE DE-ALLOCATION FAILURE
         OI    COMMFLAG,$ABEND     SIGNAL ABEND REQUEST
         B     DAIR9900            EXIT
DAIR0680 DS    0H
         ICM   R1,15,DYNNEXT       'FWD' POINTER
         BZ    DAIR0690            NO 'FWD' POINTER
         MVC   4(4,R1),DYNPREV     RECHAIN-BWD
DAIR0690 DS    0H
         ICM   R1,15,DYNPREV       'BWD' POINTER
         BZ    DAIR0700            NO 'BWD' POINTER
         MVC   0(4,R1),DYNNEXT     RE-CHAIN FWD
DAIR0700 DS    0H
         LA    R0,DYNBLOKL         LENGTH OF DYNAMIC BLOCK
         FREEMAIN R,               FREE THE STORAGE                    +
               A=(R6),                                                 +
               LV=(0)
         B     DAIR9900            EXIT TO CALLER
DAIR0710 DS    0H
         MODESET MODE=PROB,        RETURN TO OUR NORMAL SELF           +
               KEY=NZERO
         CLI   COMMENV,$ENVTSO     TSO ENVIRONMENT?
         BNE   DAIR0720            NO
         LA    R1,1                'TURN OFF' REQUEST
         L     R15,AAUTH           DITTAUTH ENTRY POINT
         BALR  R14,R15             LINK TO DITTAUTH
DAIR0720 DS    0H
         DITTRACE ID=DEBDFAIL,     TRACE DEB DELETE FAILURES           +
               RDATA1=R2           .. CAPTURE DEBCHK RETURN CODE
         ABEND ABEND017,DUMP,,USER