 MACRO
&NAME BIDI &A,&DA,&ZERO
&NAME BIPA BIPAWORK(8),&DA
 PADI  &A,BIPAWORK(8),&ZERO
 MEND
