 MACRO
&NAME RET &N
&NAME L 13,4(13)  RESTORE SAVE AREA CALLING PGM
 AIF ('&N' NE '').USAN
 MNOTE *,'RETURN CODE OMITTED, ASSUMED = 0'
 RETURN (14,12),T,RC=0
 MEXIT
.USAN RETURN (14,12),T,RC=&N
 MEND
