 MACRO
&NAME STBST
 COPY SYSGBL
 AIF (&STBST).MEND
&STBST SETB 1
 CNOP 0,4
&NAME B *+138  4+1+132
STB DC C' '
ST DC CL132' '
.MEND MEND
