 MACRO
&NAME STSTB
&NAME MVI STB,C' '
 MVC ST,STB
 MEND
