*%/*
         MACRO
&NAME    @ISPFVD &VARS=
*----------------------------------------------------------------------
* MACRO @ISPFVD EXECUTE FORM
*----------------------------------------------------------------------
         LCLA  &NDATA
         LCLA  &WORK
         LCLC  &NAM
&NAM     SETC  '&NAME'
         AIF   ('&NAM' NE '').BEG
&NAM     SETC  '@ISPFVD'
.BEG     B     &NAM._END
&NDATA   SETA  N'&VARS
&NAM._ILOPTS   DC CL8'LIST'
* NAMES
&NAM._ILNAME DC C'('
&CNT     SETA  1
.LOOP    AIF   (&CNT GT &NDATA).GE
         DC    C'&VARS(&CNT,1) '
&CNT     SETA  &CNT+1
         AGO   .LOOP
.GE      DC    C')'
* TYPES
&NAM._ILTYPE DS 0C
&CNT     SETA  1
.LOOP2   AIF   (&CNT GT &NDATA).GE2
         AIF   ('&VARS(&CNT,2)' NE 'C').FIX
         DC    CL8'CHAR'
         AGO   .NEXT
.FIX     AIF   ('&VARS(&CNT,2)' NE 'F').ERR1
         DC    CL8'FIXED'
.NEXT    ANOP
&CNT     SETA  &CNT+1
         AGO   .LOOP2
.GE2     ANOP
* LENGTHS
&NAM._ILLNG  DS 0F
&CNT     SETA  1
.LOOP3   AIF   (&CNT GT &NDATA).GE3
         DC    AL4(L'&VARS(&CNT,1))
&CNT     SETA  &CNT+1
         AGO   .LOOP3
.GE3     ANOP
* END
.FIN     ANOP
&NAM._END DS 0F
         AGO   .END
* MACROS ERRORS
.ERR1    MNOTE 12,'INVALID TYPE OPERAND'
         MEXIT
.END     MEND
