         MACRO
&NAME    ISFPSAMP
***************************
* PARM AREA               *
***************************
         DS    0D
R_PARM   DS    CL3                           MODULE FUNCTION
R_ADDR   DS    F                             ADD. OF BUFFER RETURNED
R_BUFLEN DS    F                             LENGTH OF BUFFER
R_BUFEND DS    F                             END OF BUFFER
R_ELEML  DS    F                             LENGTH OF ONE RECORD IN B.
R_WAREA  DS    F                             PREVIOUS WORK AREA
R_OTHER  DS    F                             OTHER RETURN DATA
R_ENT    DS    100F                          DATA FROM CALLER
         MEND
