./ ADD NAME=ALLOC
         MACRO
&NAME    ALLOC &DUMMY,&PERM,&DSN=,&DDN=,&DDNRET=,&MEMBER=,&DISP=,      X
               &VOL=,&UNIT=,&SYSOUT=,&FREE=,&COPIES=,&LABEL=,          X
               &BLKSIZE=,&DEN=,&DSORG=,&KEYLEN=,&LRECL=,&RECFM=,       X
               &PASWORD=,&DSNRET=,&MF=AUTO,&PREFIX=,&ERROR=,           X
               &SPACE=,&F=,&FILE=,&DA=,&QNAME=,&DSORGRT=,              X
               &VOLRET=,&DCBDSN=,&DCBDDN=,&SPECIAL=,&DDNTO=,           X
               &FORMS=,&DEST=,&SSREQ=,&FORUSER=,&TU=,&DSNPDE=
.**********************************************************************
.*                                                                    *
.*    THIS MACRO PROVIDES A DYNAMIC ALLOCATION FUNCTION BY BUILDING   *
.*    A DYNAMIC ALLOCATION PARAMETER LIST AND INVOKING SVC 99.        *
.*    IT FIRST SETS UP A WORKAREA ENVIRONMENT FOR THE PARAMETER LIST  *
.*    AND THEN TESTS THE KEYWORDS SUPPLIED AND INVOKES INNER MACROS   *
.*    TO BUILD THE TEXT UNITS. THE INNER MACROS THEMSELVES USE INNER  *
.*    MACROS TO UPDATE GLOBAL VARIABLES, STORE TEXT UNIT POINTERS ETC *
.*    THERE ARE THREE WAYS OF SPECIFYING THE WORK AREA ADDRESS.       *
.*    A) MF=AUTO, MF=G, MF=(E,ADDRESS,LNTHSYMB).                      *
.*    IN THE FIRST FORM, AN INNER MACRO DYNSPACE IS CALLED TO NAME    *
.*    A WORK AREA, THE NAME BEING RETURNED IN THE GLOBAL SETC         *
.*    VARIABLE &DYNSP. A DSECT IS CREATED TO MAP THIS AREA.           *
.*    THE GLOBAL VARIABLES &DTUO (TEXT UNIT OFFSET COUNTER) AND       *
.*    &DTUPO (TEXT UNIT POINTER OFFSET ACCUMULATOR) ARE SET TO ZERO.  *
.*    THESE ACCUMULATORS ARE UPDATED AS EACH TEXT UNIT PROCESSOR      *
.*    AQUIRES STORAGE. AFTER ALL TEXT UNITS HAVE BEEN BUILT, THE      *
.*    AMOUNT OF SPACE USED IS CALCULATED, AND THE DYNSPACE MACRO IS   *
.*    THEN CALLED AGAIN TO LOG THE AMOUNT NEEDED. DYNSPACE SETS A     *
.*    GLOBAL VARIABLE &DYNSPQ TO THE HIGHEST AMOUNT ANY ALLOC OR      *
.*    FREE MACRO REQUESTED, AND WHEN CALLED WITH THE EXPAND OPTION,   *
.*    (NO OPERANDS OR NAME FIELD SUPPLIED), EXPANDS INTO A DS FOR     *
.*    THAT QUANTITY. (SEE DYNSPACE)                                   *
.*    MF=G SPECIFIES THAT THE ALLOC MACRO ENTER THE BEGIN MACRO       *
.*    WORKAREA TO ACQUIRE THE STORAGE NECESSARY. IT DOES THIS VIA     *
.*    THE RCPDS MACRO. (SEE RCPDS). HOWEVER, IF THE ALLOC MACRO IS    *
.*    CALLED SEVERAL TIMES WITH THIS OPTION, A LOT OF STORAGE WILL BE *
.*    USED UP, AS THE STORAGE WILL NOT BE SHARED. THUS, THIS FORM     *
.*    SHOULD ONLY BE USED IF THE ALLOC/FREE MACRO IS ONLY TO BE USED  *
.*    ONCE OR TWICE DURING AN ASSEMBLY.                               *
.*    MF=E CAUSES THE MACRO TO USE A USER SPECIFIED WORK AREA. THE    *
.*    SECOND PARAMETER GIVES THE NAME OF THE WORKAREA, AND AN         *
.*    OPTIONAL THIRD PARAMETER IS THE NAME OF A SYMBOL TO BE EQUATED  *
.*    TO THE LENGTH OF THE REQUIRED WORK AREA.                        *
.*                                                                    *
.*    DYNAMIC ALLOCATION FUNCTIONS ARE SIMILAR TO THOSE AVAILABLE    *
.*    WITH JCL, USING THE SAME KEYWORDS. HOWEVER, CERTAIN FORMATS    *
.*    ARE SLIGHTLY DIFFERENT. FOR INSTANCE, CERTAIN KEYWORDS CAN     *
.*    HAVE VARYING PARAMETERS, EG DATASET NAME, DDNAME, VOLSER ETC.  *
.*    PROVISION IS MADE FOR BOTH VARIABLE SPECIFICATION.             *
.*    IN THE ABSOLUTE FORM, THE PARAMETER IS ENTERED IN QUOTES,      *
.*    E.G.   ALLOC DSN='SYS1.LINKLIB',DISP=SHR                       *
.*    HOWEVER, THIS NAME REMAINS FIXED FOR THE ASSEMBLY.             *
.*    IN THE VARIABLE FORMAT, THE ADDRESS OF A LOCATOR IS SPECIFIED, *
.*    WHERE THE LOCATOR CONSISTS OF A SIX BYTE FIELD, THE FIRST 4    *
.*    BYTES OF WHICH POINT TO THE PARAMETER, WHILE THE NEXT TWO      *
.*    CONTAIN THE LENGTH.                                            *
.*    EG          ALLOC DSN=LOCATOR                                  *
.*       LOCATOR  DC    A(DSN),Y(12)                                 *
.*       DSN      DC    C'SYS1.LINKLIB'                              *
.*                                                                   *
.*       NUMERIC QUANTITIES E.G. COPIES= FOR SYSOUT, SHOULD EITHER   *
.*       SPECIFY A NUMERIC VALUE, COPIES=3,                          *
.*       A VALUE IN A REGISTER, COPIES=(R3),                         *
.*       OR THE NAME OFF A FULLWORD CONTAINING THE VALUE,            *
.*          COPIES=NUMCOPYS, WHERE NUMCOPYS IS THE NAME OF A         *
.*       FULLWORD FIELD.                                             *
.*                                                                   *
.*       OTHER KEYWORDS SUCH AS DISP= CAN ONLY HAVE THE ABSOLUTE     *
.*       FORM, AND VALUES SHOULD NOT BE ENTERED WITHIN QUOTES.       *
.*       ADDITIONAL FACILITIES NOT AVAILABLE WITH JCL ARE THE        *
.*       RETURN BY THE SYSTEM OF INFORMATION ON THE DATASET, EG      *
.*       DSORG. THIS IS DONE BY SPECIFYING DSORGRT=SYMBOL, WHERE     *
.*       SYMBOL IS A SYMBOL WHICH WILL BE EQUATED TO A TWO BYTE      *
.*       FIELD CONTAINING THE DSORG TYPE (SEE JOB MANAGEMENT,        *
.*       SUPERVISOR AND TSO).                                        *
.*       THE SYSTEM CAN ALSO GENERATE AND RETURN A DDNAME. THIS IS   *
.*       CARRIED OUT BY ENTERING DDNTO=(ADDR1,ADDR2,,...)            *
.*       WHERE ADDR1,ADDR2 ETC ARE THE NAMES OF 8 BYTE FIELDS WHICH  *
.*       ARE TO RECEIVE THE DDNAME.                                  *
.*       FOR FURTHER INFORMATION ON DYNAMIC ALLOCATION, SEE          *
.*       JOB MANAGEMENT, SUPERVISOR AND TSO.                         *
.*                                                                   *
.**********************************************************************
         GBLA  &RCPDYN            COUNTER FOR NO ENTRIES TO MACRO
         GBLA  &DTUO              OFFSET TO TEXT UNITS
         GBLA  &DTUPO             OFFSET TO TEXT UNIT POINTERS
         GBLB  &RCPS99(2)         TELL RCPDSECT NEED DSECTS
         GBLC  &DYNP              PREFIX FOR LABELS FOR THIS CALL
         GBLC  &DYNSP         NAME FOR AUTOMATIC STORAGE ALLOC
         LCLA  &DDNRTO,&DSNRTO         FOR EQUATES FOR RETURNED FLDS
         LCLA  &VOLRTO,&DSRGRTO        FOR EQUATES FOR RETURNED FIELDS
         LCLA  &I                 COUNTER
         LCLB  &DSECT             DSECT NEEDED FOR STORAGE, MF=E
         LCLC  &C,&T,&PAR
.*
.*   THE ALLOC MACRO PROVIDES A DYNAMIC ALLOCATION FUNCTION,
&RCPS99(1)     SETB           1
&RCPDYN  SETA  &RCPDYN+1          INCEREMENT COUNTER
&DYNP    SETC  'DYN&RCPDYN' SET DEFAULT PREFIX
&NAME    DS    0H
         AIF   ('&PREFIX' EQ '').TMF
         AIF   (K'&PREFIX LT 4).POK
         MNOTE 4,'PREFIX TOO LONG, 1ST 4 CHARS USED'
&DYNP    SETC  '&PREFIX'(1,4)
         AGO   .TMF
.POK     ANOP
&DYNP    SETC  '&PREFIX'
.TMF     AIF   ('&MF(1)' EQ 'G').GEN
         AIF   ('&MF' NE 'AUTO').TMFE
NAME     DYNSPACE             GET NAME FOR SPACE
         LA    R1,&DYNSP               LOAD ADDRESS OF PARAM LIST
         USING &DYNP.DS,R1             USE GENERATED DSECT
&T       SETC  'A'
&PAR     SETC  '&DYNSP+4'
&DSECT   SETB  1
         AGO   .START
.TMFE    AIF   ('&MF(2)' NE '').E2OK
         MNOTE 4,'PLIST ADDRESS OMITTED, MF=G USED'
         AGO   .GEN
.E2OK    ANOP
&DSECT   SETB  1
         AIF   ('&MF(2)' EQ '(').RMFE
         LA    R1,&MF(2)               LOAD PARAM LIST ADDRESS
         USING &DYNP.DS,R1             USE GENERATED DSECT
         AGO   .START
.RMFE    AIF   ('&MF(2)' EQ '(R1)' OR '&MF(2)' EQ '(1)').START
         LR    R1,&PAR                 LOAD S99 PARAM LIST ADDRESS
         AGO   .START
.GEN     LA    R1,&DYNP.RBP            LOAD ADDRESS OF S99 RBP
.START   LA    R15,&DYNP.RB            LOAD ADDRESS OF S99 RB
         USING S99RB,R15
         ST    R15,0(R1)               AND STORE IN RB POINTER
         XC    4(&DYNP.LEN-4,R1),4(R1) ZERO PARAMETER LIST
         MVI   S99RBLN,20              MOVE IN LIST LENGTH
         MVI   S99VERB,S99VRBAL        MOVE IN VERB CODE
         LA    R14,&DYNP.TUP           LOAD ADDRESS OF TU POINTERS
         ST    R14,S99TXTPP            STORE ADDRESS IN S99 RB
         LA    R15,&DYNP.TU            POINT TO SPACE FOR TEXT UNITS
         USING S99TUNIT,R15
&DTUO    SETA  0
&DTUPO   SETA  0
         AIF   ('&SSREQ' EQ 'YES').SSREQ
.TDSN    AIF   ('&DSN&DA' NE '').DSN
         AIF   ('&DSNPDE' NE '').DSNPDE
         AIF   ('&DSNRET' NE '').DSNRT
         AIF   ('&SYSOUT' NE '').SYSOUT
         AIF   ('&DUMMY' NE '').DUMMY
         AIF   ('&QNAME' NE '').QNAME
.TDDN    AIF   ('&DDN&FILE&F' NE '').DDN
         AIF   ('&DDNRET&DDNTO' NE '').DDNRT
.TUNIT   AIF   ('&UNIT&VOL' NE '').UNIT
.TVOLRET AIF   ('&VOLRET' NE '').VOLRET
.TDSRGO  AIF   ('&DSORGRT' NE '').DSORGRT
.TLABEL  AIF   ('&LABEL' NE '').LABEL
.TPSWD   AIF   ('&PASWORD' NE '').PASWORD
.TFORUSE AIF   ('&FORUSER' NE '').FORUSER
.TTU     AIF   ('&TU' NE '').TU
.TDISP   AIF   ('&DISP' NE '').DISP
.TSPACE  AIF   ('&SPACE' NE '').SPACE
.TLRECL  AIF   ('&LRECL' NE '').DCB
         AIF   ('&DEN' NE '').DCB
         AIF   ('&RECFM' NE '').DCB
         AIF   ('&BLKSIZE' NE '').DCB
         AIF   ('&DSORG' NE '').DCB
         AIF   ('&KEYLEN' NE '').DCB
.TDCBDSN AIF   ('&DCBDSN' NE '').DCBDSN
.TDCBDDN AIF   ('&DCBDDN' NE '').DCBDDN
.TFREE   AIF   ('&FREE' EQ 'CLOSE').FREE                         TE7343
.TPERM   AIF   ('&PERM' EQ 'PERM' OR '&PERM' EQ 'PERMANENT').PERM
         AIF   ('&DUMMY' EQ 'PERM' OR '&DUMMY' EQ 'PERMANENT').PERM
.TSPECI  AIF   ('&SPECIAL' NE '').SPECIAL
         AGO   .SVC99
.SSREQ   RCPSSREQ
         AGO   .TDSN
.DSN     RCPDSN &DSN&DA,&MEMBER
         AGO   .TDDN
.DSNPDE  RCPDSNPD &DSNPDE
         AGO   .TDDN
.DSNRT   RCPDSNRT &DSNRET
&DSNRTO  SETA  &DTUO-46
         AGO   .TDDN
.SYSOUT  RCPSYSOU &SYSOUT,COPIES=&COPIES,FREE=&FREE,DEST=&DEST,        X
               FORMS=&FORMS
         AGO   .TDDN
.DUMMY   RCPDUMMY &DUMMY
         AGO   .TDDN
.QNAME   RCPQNAME &QNAME
         AGO   .TDDN
.DDN     RCPDDN &DDN&F&FILE
         AGO   .TUNIT
.DDNRT   RCPDDNRT &DDNRET
&DDNRTO  SETA  &DTUO-10
         AGO   .TUNIT
.UNIT   RCPUNIT &UNIT,&VOL
         AGO   .TVOLRET
.VOLRET  RCPVOLRT &VOLRET
&VOLRTO  SETA  &DTUO-8
         AGO   .TDSRGO
.DSORGRT RCPDSRGR
&DSRGRTO SETA  &DTUO-2
         AGO   .TLABEL
.LABEL   RCPLABEL &LABEL
         AGO   .TPSWD
.PASWORD RCPPSWD &PASWORD
         AGO   .TFORUSE
.FORUSER RCPFORUS &FORUSER
         AGO   .TTU
.TU      RCPTU &TU
         AGO   .TDISP
.DISP    RCPDISP &DISP
         AGO   .TSPACE
.SPACE   RCPSPACE &SPACE
         AGO   .TLRECL
.DCB     RCPDDCB LRECL=&LRECL,DEN=&DEN,RECFM=&RECFM,BLKSIZE=&BLKSIZE,  X
               DSORG=&DSORG,KEYLEN=&KEYLEN
         AGO .TDCBDSN
.DCBDSN  RCPDCBDS &DCBDSN
         AGO .TDCBDDN
.DCBDDN  RCPDCBDD &DCBDDN
         AGO .TFREE                                              TE7343
.FREE    RCPFREE  &FREE                                          TE7343
         AGO   .TPERM
.PERM    RCPPERM
         AGO   .TSPECI
.SPECIAL RCPSPEC &SPECIAL
.SVC99   ANOP
&DTUPO   SETA  &DTUPO-4
         SPACE
         MVI   &DYNP.TUP+&DTUPO,X'80'  SET HIGH ORDER BIT ON TEXT PTRS
         MVI   &DYNP.RBP,X'80'         SET HIGH ORDER BIT ON RB PTR
         RCPSR2 UNSAVE
&DTUPO   SETA  &DTUPO+4
         AIF   (NOT &DSECT).DYNA
         DROP  R1,R15                  DEACTIVATE ADDRESSABILITY
         LA    R14,4(R1)               POINT TO REQUEST BLOCK
.DYNA    DYNALLOC
         AIF   (NOT &DSECT).LTR
         USING &DYNP.RB,R14            SET UP ADDRESSABILITY
**       NOTE  R14 HAS RB ADDRESS, R15 HAS SVC 99 RETURN CODE        **
.LTR     AIF   ('&ERROR' EQ '').TDDTO
         LTR   R15,R15                 TEST RETURN CODE
         BNZ   &ERROR                  BRANCH IF NON ZERO
.TDDTO   AIF   ('&DDNTO' EQ '').RESERVE
&I       SETA  0
.DDNTOL  ANOP
&I       SETA  &I+1
         AIF   ('&DDNTO(&I)' EQ '').RESERVE
         AIF   ('&DDNTO(&I)'(1,1) EQ '(').DDNTOR
         MVC   &DDNTO(&I).(8),&DYNP.TU+&DDNRTO+2
         AGO   .DDNTOL
.DDNTOR  ANOP
&C       SETC  '&DDNTO(&I)'(2,K'&DDNTO(&I)-2)
         MVC   0(8,&C),&DYNP.TU+&DDNRTO+2
         AGO   .DDNTOL
.RESERVE AIF   (&DSECT).RESDS
         SPACE 1
***********************************************************************
**       RESERVE SPACE FOR DYNALLOC PARAMETER LIST                   **
***********************************************************************
         RCPDS
.SSP     ANOP
&DYNP.RBP DS   F                       SVC 99 REQ BLOCK POINTER
&DYNP.RB  DS   5F                      SVC 99 REQUEST BLOCK
&DYNP.TUP DS   CL&DTUPO                SPACE FOR TEXT POINTERS
         AIF   (&DTUO EQ 0).DTU21
&DYNP.TU  DS   CL&DTUO                 SPACE FOR TEXT UNITS
         AIF   (&DSNRTO EQ 0).TDDNRTO
&DSNRET  EQU   &DYNP.TU+&DSNRTO        OFFSET TO RETURNED DSN
.TDDNRTO AIF   ('&DDNRET' EQ '').DTU11
&DDNRET  EQU   &DYNP.TU+&DDNRTO        OFFSET TO RETURNED DDNAME
.DTU11   AIF   (&VOLRTO EQ 0).DTU12
&VOLRET  EQU   &DYNP.TU+&VOLRTO        OFFSET TO RETURNED VOLSER
.DTU12   AIF   (&DSRGRTO EQ 0).DTU10
&DSORGRT EQU   &DYNP.TU+&DSRGRTO       OFFSET TO RETURNED DSORG
         AGO   .DTU10
.DTU21   ANOP
&DYNP.TU  DS   0C                      NO SPACE NEEDED FOR TEXT UNITS
.DTU10   ANOP
&DYNP.LEN EQU  *-&DYNP.RBP             LENGTH OF SPACE USED
         AIF   (&DSECT).DSP
         RCPDS
         SPACE 3
         AGO   .EXIT
.RESDS   ANOP
         AIF   ('&DYNSP' EQ '').SP3
         DYNSPACE ADD
.SP3     SPACE
&DYNP.DS DSECT                         DSECT TO MAP SVC 99 DATA
         AGO   .SSP
.DSP     AIF   ('&MF(3)' EQ '').END1
&MF(3)   EQU   &DYNP.LEN               LENGTH OF AREA
.END1    ANOP
&SYSECT  CSECT
         SPACE 3
.EXIT    MEND
./ ADD NAME=BLPRWA   0100-79355-79355-0620-00019-00019-00000-TEC015  00
         MACRO
         BLPRWA
BLPRWA   DSECT
         SPACE
WAFLAG1  DS    X
         SPACE
WALOWCOL EQU   X'80'              LOW COL SPECIFIED
WAHICOL  EQU   X'40'              HI COLUMN SPECIFIED
WAFMRKN  EQU   X'20'              LIST MARKER
WAFTWLN  EQU   X'10'
WAF2LNS  EQU   X'08'              LIST TWOLINES
WAFSQUSH EQU   X'04'              LIST SQUSHED
WAFCAN   EQU   X'02'              CANCEL RUN
         SPACE 3
WAMRKCH  DS    CL1
WA2LNCH  DS    CL1
         DS    0F
WASIZE   EQU   *-BLPRWA
         MEND
./ ADD NAME=BTD
         MACRO
&L       BTD   &LOC,&LEN,&WORD,&SW
&L       SYSLR 15,&WORD,OP=L
         SYSLR 0,&LEN,TYPE=&SW
         SYSLR 1,&LOC
         CVCALL BTD
         MEND
./ ADD NAME=BTX
         MACRO
&L       BTX   &LOC,&LEN,&WORD
&L       SYSLR 15,&WORD,OP=L
         SYSLR 0,&LEN
         SYSLR 1,&LOC
         CVCALL BTX
         MEND
./ ADD NAME=CA
         MACRO                                                   JH2038
         CA    &DUMMY   (&DUMMY ALLOWS COMMENTS FIELD)           JH2038
.*                                                               JH2038
.*CHANGED 72.038 (07FEB72), J. HALPERIN.                         JH2038
.*  CHANGE FROM COPY TO MACRO CALL.                              JH2038
.*  ADD CATCB FIELD.                                             JH2038
.*                                                               JH2038
*
*  CONTROL AREA
*
CASTART  DS    0F
CAFL     DS    0X .     --FLAG BYTE
*
CAFECB   EQU   X'80' .  CAECB CONTAINS AN ECB ADDR
CAFQF    EQU   X'40' .  QUEUE HAS OVERFLOWED
CAFQE    EQU   X'20' .  QUEUE HAS BEEN EMPTIED
*
CAECB    DS    A .      ADDR OF ECB
CATCB    DS    A .      ADDR OF TCB CORRESPONDING TO ECB        +JH2038
CAQCTR   DS    F .      NUMBER OF ENTRIES IN THE QUEUE
*
CAQSIZE  EQU   16 .     QUEUE CAPACITY (WORDS)
*
CAQUEUE  DS    (CAQSIZE)F
*
CASIZE   EQU   *-CASTART
         MEND                                                    JH2038
./ ADD NAME=CALCTRK,SSI=00009345
         LA    R6,CPWA             SET BASE
         USING DVTAREA,R6              FOR DEVTABLE
         LA    R0,CPSIZE           SET R0 TO BLKSIZE ALSO
         LR    R3,R0               SET R3 ALSO
         MH    R3,DVTTOL           MULT BY TOLERANCE
         SRA   R3,9                DIVIDE BY 512
         SR    R1,R1               SET FOR IC
         IC    R1,DVTKEYO          GET KEY OVERHEAD
         SR    R0,R1               ADJUST BLKSIZES SINCE NO KEYS
         SR    R3,R1
         TM    DVTFLAG,DVTFOHD     IS IT HALF WORD OVERHEAD
         BO    CALCTRK1            BR YES
         IC    R1,DVTBLKO          GET NORMAL BLOCK OVERHEAD
         AR    R3,R1               ADJUST NORMAL VALUE
         IC    R1,DVTLBLKO         GET LAST BLOCK OVERHEAD
         AR    R0,R1               ADJUST LAST BLOCK VALUE
         B     CALCTRK2            NOW GO ON
         SPACE
CALCTRK1 LH    R1,DVTBLKO          GET BLOCK OVERHEAD
         AR    R0,R1               ADJUST BOTH FOR
         AR    R3,R1                   BLOCK OVERHEAD
CALCTRK2 LH    R1,DVTTRKSZ         GET TRACK SIZE
         SR    R1,R0               ADJUST FOR LAST BLOCK
         AR    R1,R3               ADD TO INCR COUNT BY 1
         SR    R0,R0               SET FOR DIVIDE
         DR    R0,R3               CALCULATE VALUE IN R1
         DROP  R6
./ ADD NAME=CAMLST
         MACRO
&NAME    CAMLST &PAR1,&PAR2,&PAR3,&PAR4,&OPT1,&OPT2,&OPT3,&DUMMY=
         LCLA  &B1,&B2,&B3,&CTR
         LCLB  &P(16),&OP(3),&D(4),&NOGO                            TSO
         AIF   ('&PAR1' EQ '').E1
         AIF   ('&PAR2' EQ '').E2
.R1      ANOP
&P(1)    SETB  ('&PAR1' EQ 'CAT' OR '&PAR1' EQ 'CATBX')             TSO
&P(2)    SETB  ('&PAR1' EQ 'RECAT')
&P(3)    SETB  ('&PAR1' EQ 'UNCAT' OR '&PAR1' EQ 'UCATDX')          TSO
&P(4)    SETB  ('&PAR1' EQ 'BLDX' OR '&PAR1' EQ 'CATBX')            TSO
&P(5)    SETB  ('&PAR1' EQ 'BLDG')
&P(6)    SETB  ('&PAR1' EQ 'BLDA')
&P(7)    SETB  ('&PAR1' EQ 'LNKX')
&P(8)    SETB  ('&PAR1' EQ 'DLTX' OR '&PAR1' EQ 'UCATDX')           TSO
&P(9)    SETB  ('&PAR1' EQ 'DLTA')
&P(10)   SETB  ('&PAR1' EQ 'DRPX')
&P(11)   SETB  ('&PAR1' EQ 'NAME')
&P(12)   SETB  ('&PAR1' EQ 'BLOCK')
&P(13)   SETB  ('&PAR1' EQ 'SEARCH')
&P(14)   SETB  ('&PAR1' EQ 'SEEK')
&P(15)   SETB  ('&PAR1' EQ 'SCRATCH')
&P(16)   SETB  ('&PAR1' EQ 'RENAME')
&CTR     SETA  &P(1)+&P(2)+&P(3)+&P(4)+&P(5)+&P(6)+&P(7)+&P(8)+&P(9)
&CTR     SETA  &CTR+&P(10)+&P(11)+&P(12)+&P(13)+&P(14)+&P(15)+&P(16)
         AIF   (&CTR EQ 0).E3                                       TSO
&D(1)    SETB  ('&PAR3' NE '')
&D(2)    SETB  ('&PAR4' NE '')
         AIF   (NOT &D(1) AND (&P(13) OR &P(14) OR &P(16))).E4
.R3      AIF   (&D(1) AND &P(15)).E5
         AIF   (NOT &D(2) AND (&P(1) OR &P(2) OR &P(6) OR &P(7) OR &P(1X
               1) OR &P(12) OR &P(13) OR &P(14) OR &P(15) OR &P(16))).E
         AIF   (&P(1) AND &P(4)).R2                                 TSO
         AIF   (&D(2) AND (&P(3) OR &P(4) OR &P(5) OR &P(8) OR &P(9) ORX
               &P(10))).E6
.R2      AIF   ('&OPT1' EQ '').CONTA
         AIF   ('&OPT1' NE 'DELETE').E7
&OP(1)   SETB  1
         AIF   (NOT &P(5)).E7
.CONTA   AIF   ('&OPT2' EQ '').CONTB
&OP(2)   SETB  ('&OPT2' EQ 'EMPTY')
&OP(3)   SETB  ('&OPT2' EQ 'OVRD')
         AIF   (&OP(2)+&OP(3)  NE 1).E8
         AIF   (NOT &P(5) AND &OP(2) OR(NOT &P(15) AND &OP(3))).E8
.CONTB   AIF   ('&OPT3' EQ '' AND &P(5)).E10
         AIF   ('&OPT3' NE '' AND NOT &P(5)).E11
         AIF   (&NOGO EQ 1).END
&B1      SETA  128*&D(1)+64*&D(2)+32*&P(1)+20*&P(2)+8*&P(3)+2*&P(12) O
&D(4)    SETB  (&P(3) OR &P(8))                                     TSO
&B1      SETA  &B1+4*(&P(11)+&P(5)+&P(6)+&P(7)+&D(4)+&P(9)+&P(10))  TSO
&D(3)    SETB  (&P(1) OR &P(4))                                     TSO
&B1      SETA  &B1+4*&D(3)+&P(13)+&P(15)+&P(16)                     TSO
&B2      SETA  128*&P(14)+64*&P(4)+32*&P(5)+16*&P(6)+8*&P(7)+4*&P(8)+&PX
               (9)
&B3      SETA  128*&P(10)+64*&P(15)+32*&P(16)+64*&OP(1)+16*&OP(3)+8*&OPX
               (2)
&NAME    DS    0F                                ALIGN ON FULL WORD
         DC    AL1(&B1)                          THREE BYTES OF FLAGS
         DC    AL1(&B2)                          INDICATING THE FUNC-
         DC    AL1(&B3)                          TION TO BE PERFORMED
         AIF   (&P(5)).CONTC
         DC    AL1(0)                            NO OPTION THREE
         AGO   .CONTD
.CONTC   DC    AL1(&OPT3)                        NO. OF ENTRIES
.CONTD   DC    A(&PAR2)                          PARAMETER TWO
         AIF   (&D(1)).CONTE
         DC    A(0)                              PARAM. THREE OMMITTED
         AGO   .CONTF
.CONTE   DC    A(&PAR3)                          PARAMETER THREE
.CONTF   AIF   (NOT &D(2)).END
         DC    A(&PAR4)                          PARAMETER FOUR
         MEXIT
.E       IHBERMAC 5                     PAR4 MISSING
         MEXIT
.E1      IHBERMAC 2                     PAR1 MISSING
         MEXIT
.E2      IHBERMAC 3                     PAR2 MISSING
&NOGO    SETB  1
         AGO   .R1
.E3      IHBERMAC 36,,&PAR1             PAR1 INVALID
         MEXIT
.E4      IHBERMAC 4                     PAR3 MISSING
&NOGO    SETB  1
         AGO   .R3
         MEXIT
.E5      IHBERMAC 60,,&PAR3             PAR3 W/SCRATCH
         MEXIT
.E6      IHBERMAC 39,,&PAR4             PAR4 NOT ALLOWED
&NOGO    SETB  1
         AGO   .R2
.E7      IHBERMAC 50,,&OPT1             OPTN1 INVALID
&NOGO    SETB  1
         AGO   .CONTA
.E8      IHBERMAC 51,,&OPT2             OPTN2 INVALID
&NOGO    SETB  1
         AGO   .CONTB
.E10     IHBERMAC 52                    OPTN3 MISSING
         MEXIT
.E11     IHBERMAC 53,,&OPT3             OPTN3 INVALID
.END     MEND
./ ADD NAME=COMMAND
         MACRO
&LABEL   COMMAND &CMND,&GOTO,&HELP,&ABBR
         LCLA  &K,&I,&J,&MASK(8)
&MASK(1) SETA  1
&MASK(2) SETA  2
&MASK(3) SETA  4
&MASK(4) SETA  8
&MASK(5) SETA  16
&MASK(6) SETA  32
&MASK(7) SETA  64
&MASK(8) SETA  128
&LABEL   DC    CL8'&CMND' .        COMMAND ID
         DC    AL2(R&HELP-ROUTBLE) HELP ROUTINE
         DC    H'0'
.* NOW GENERATE THE MASK
&I       SETA  4
.LOOP    AIF   ('&SYSLIST(&I)' EQ '').DONE
&K       SETA  &SYSLIST(&I)
&J       SETA  &J+&MASK(&K)
&I       SETA  &I+1
         AGO   .LOOP
.DONE    ANOP
         DC    AL1(&J) .           ABBREVIATIONS
         DC    AL3(&GOTO) .        PROCESSING ROUTINE
         MEND
./ ADD NAME=COMMOLD
         MACRO
         COMMON
CPAREA   DSECT
         SPACE
         COPY  CPTSO
         EJECT
         COPY  DSNWA
         EJECT
         COPY  CVTSO
         EJECT
         COPY  CVUSER
         EJECT
JCB      DS    0F
         SPACE
         COPY  JCBTSO
         SPACE
         ROUTBLE ,
         MEND
./ ADD NAME=COMMON,SSI=00009361
         MACRO
         COMMON
CPAREA   DSECT
         COPY  CVTSO
         EJECT
         COPY  CVUSER
         EJECT
JCB      DS    0F
         SPACE
         COPY  JCBTSO
         SPACE
         ROUTBLE ,
         SPACE
         COPY  CPTSO
         EJECT
         COPY  DSNWA
         EJECT
         MEND
./ ADD NAME=COUNT
         MACRO
&LABEL   COUNT &VALUE,&REG=0,&INCR=
.* COUNT IS USED TO ADD INCR TO VALUE AND STORE IT BACK
.* REG IS USED AS THE REGISTER AND LOGICAL ADDS ARE DONE TO
.*     AVOID ANY OVERFLOW OR CONDITION CODE PROBLEMS.
.* IF THE INCR IS OMITTED, THEN CVONE IS USED TO INCR BY ONE
.*     IN THE ADD INSTRUCTION.  OTHERWISE, A LITERAL IS USED.
.* IT WILL WORK FOR A, F, OR H TYPE CONSTANTS WITH IMPLIED LENGTHS
         LCLC  &H,&TP
&TP      SETC  T'&VALUE           SET TP TO TYPE OF VALUE
         AIF   ('&TP' EQ 'A' OR '&TP' EQ 'F').GO
         AIF   ('&TP' EQ 'H').GOH
         MNOTE 8,'TYPE OF &VALUE IS &TP -- NOT A, F, OR H'
         MEXIT
.GOH     ANOP
&H       SETC  'H'
.GO      ANOP
&LABEL   L&H   &REG,&VALUE        LOAD OLD COUNT
         AIF   ('&INCR' EQ '').CVINCR
         AL    &REG,=F'&INCR'     ADD INCR TO THE COUNT
         AGO   .DOSTORE
.CVINCR  AL    &REG,CVONE          ADD ONE TO THE COUNT
.DOSTORE ST&H  &REG,&VALUE        SAVE NEW COUNT
         MEND
./ ADD NAME=CPOLD,SSI=00009327
* WYLTSO LINE EDITOR CONTROL PAGE
         SPACE ,
*                                                               JEP005
*                                                               JEP005
* MODIFIED AT DCEC TO INCORPORATE UPPER AND LOWER OPERANDS      JEP005
* ON THE CHANGE CMD FOR CHANGING CASE OF TEXT.                  JEP005
*                                                               JEP004
*                                                               JEP004
* MODIFIED AT DCEC TO ENABLE RECOGNITION OF 3277 TERMINALS.     JEP004
* ACCOMPLISHED IN LFLG1. JERRY PITTENGER                        JEP004
*                                                               JEP010
*                                                               JEP010
* MODIFIED AT DCEC TO ALLOW FOR FOUR LOCAL FLAGS (LFLG1-4).     JEP010
*                                                               JEP001
*                                                               JEP001
* MODIFIED AT DCEC TO ALLOW FOR UP TO 7 CHAR. LOGON ID.         JEP001
*                                                               JEP001
*                                                               JEP017
* MODIFIED AT DCEC TO DOUBLE THE EXEC FILE SIZE.                JEP017
*                                                               JEP017
CPSTART  DS    0D
CPR13    DS    A                       REGISTERS
CPR14    DS    A
CPR15    DS    A
CPR0     DS    A
CPR1     DS    A
CPR2     DS    A
CPR3     DS    A
CPR4     DS    A
CPR5     DS    A
CPR6     DS    A
CPR7     DS    A
CPR8     DS    A
         SPACE 3
* REMOTE TERMINAL BUFFER
         SPACE ,
RTBSTART DC    0F'0'
RTBTABS  DC    XL8'00'             TABS
         SPACE 2
RTBMFL   DC    AL1(0)              MODE FLAG
         SPACE ,
RTBMFUC  EQU   X'80'               UPPER-CASE ONLY
RTBMFNA  EQU   X'40'               NO WRITE ATTN
RTBMFCL  EQU   X'20'               CLEAN LISTING
RTBMFNTO EQU   X'10'               NO TABS IN OUTPUT
RTBNOCR  EQU   X'08'               NO CARRIAGE RETURNS
RTBNOTR  EQU   X'04'               NO TRANSLATE TABLE
RTBWRAP  EQU   X'02'               CR/LF NEEDED FOR WRAPPING
RTBCRT   EQU   X'01'               PAGING IS TO BE DONE
         SPACE 2
RTBSFL   DC    X'00'       STATUS FLAGS
         SPACE ,
RTBSFEND EQU   X'C0'       ENDING STATUS, 00=OK, 01=ATTN, 11=I/O ERROR
RTBSFATN EQU   X'40'       ATTENTION
RTBSFERR EQU   X'C0'       I/O ERROR
RTBSFUST EQU   X'20'       UNSET TAB
RTBSFBRK EQU   X'10'       ENDED BY BREAK
RTBSFHU  EQU   X'08'       HUNG UP PHONE
         SPACE ,
RTBWC    DC    H'0'        WRITE COUNT
RTBPC    DC    H'0'        PROMPT COUNT
RTBRC    DC    H'0'        READ COUNT
         SPACE ,
RTBNTEXT EQU   168         SIZE OF TEXT BUFFER
RTBPMAX  EQU   32          MAX LENGTH FOR PROMPT
         SPACE ,
RTBWAPTR DS    F           RTB WORK AREA POINTER (256 BYTES)
RTBATNSZ EQU   0           2 BYTES: ATTN SEQ LENGTH
RTBATTN  EQU   2           8 BYTES: ATTN SEQ
RTBPSZ   EQU   10          2 BYTES: PAGE SIZE
RTBLSZ   EQU   12          2 BYTES: LINE SIZE
RTBLINE  EQU   14          2 BYTES: LINES PRINTED
RTBCURS  EQU   16          2 BYTES: CHARS PRINTED
RTBBSCNT EQU   18          2 BYTES: BS COUNTER FOR TABS
RTBTRBUF EQU   20        168 BYTES: TRANSLATE BUFFER
RTBPRMPT EQU   188        32 BYTES: REPROMPT BUFFER
RTBSAVE  EQU   220         2 BYTES: SAVE BUFFER FOR CR/LF
*        EQU   222        26 BYTES: STILL AVAILABLE
RTBPAUS  EQU   248         8 BYTES: CRT PAUSE READ BUFFER
         SPACE 2
RTBUFL   DS    X
         SPACE ,
RTBUATTN EQU   X'80'       ATTN SEQUENCE EXISTS
RTBUNCOL EQU   X'40'       AUTOMATIC COLLECT NOT HONORED
RTBUPAD  EQU   X'20'       PAD WHEN LISTING NOCR
RTBURELT EQU   X'10'       TABS ARE RELATIVE
RTBUBACK EQU   X'08'       BACKSPACE IS A GOOD CHARACTER
RTBUFAST EQU   X'04'       FASTLIST IN EFFECT
RTBUTBUN EQU   X'02'       TABS ARE UNNUMBERED
         SPACE ,
         DS    3X          MORE SPACE AVAILABLE
         DC    0F'0'     FULL WORD FOR ORVYL-WYLBUR
RTBTEXT  DC    CL(RTBNTEXT)' ' TEXT BUFFER
         DC    0F'0'
         SPACE ,
RTBSIZE  EQU   *-RTBSTART
         SPACE 3
CPRTBSZ  EQU   RTBSIZE                 SIZE OF RTB
CPSCANSZ EQU   24                      SIZE OF SCAN AREA
CPSCAN   DS    0F,(CPSCANSZ)X          SCANNER WORK AREA
         SPACE ,
* FOR THE TEXT-EDITOR
CPGLDL   DS    1F   GLOBAL DELTA
CPHIPS   DS    1F   HIGHEST POSITION YET REACHED  * MUST
CPLNCT   DS    1H   LINE COUNT                    *STAY
CPAGCT   DS    1H   PAGE COUNT                    * TOGETHER
CPLNGTH  DS    1H   LINE LENGTH OPTION
         SPACE 2
CPGFLG   DS    1X      GLOBAL FLAG BYTE
         SPACE ,
CPFOPN   EQU   X'80'   EXTERNAL DATA SET OPEN FLAG
CPFCMOFF EQU   X'40'   TERSE MODE FLAG FOR NORMAL MESSAGES
CPFUPLW  EQU   X'20'   UPPER-LOWER CASE FLAG
CPFVOLM  EQU   X'10'   DEFAULT VOLUME SET FLAG
CPFDIRCH EQU   X'08'   DIRECTORY HAS CHANGED
CPFRETRY EQU   X'04'   COMMAND RETRY GOING ON
CPFRETOK EQU   X'02'   COMMAND RETRY CAN BE DONE
         SPACE 2
CPGFLG2  DS    1X      GLOBAL FLAG BYTE
         SPACE ,
CPFEXEC  EQU   X'80'   TAKE COMMANDS FROM EXEC FILE
CPFNOLOG EQU   X'40'   DON'T LOG COMMANDS FROM EXEC FILE
CPFEXTER EQU   X'20'   EXEC MODE TERSE FLAG
CPSKNULL EQU   X'04'   SKIP CHARACTER IS NULL FLAG
CPESNULL EQU   X'02'   ESCAPE CHARACTER IS NULL FLAG
         SPACE ,
CPDOUB   DS    1D   DOUBLE-WORD WORK
CPHFWRD  DS    H    USED TO EXTEND CPDOUB TO 10 BYTES
CPVOLSV  DS    CL6  DEFAULT VOLUME SAVE AREA
         SPACE ,
CPLSTCOL DS    1F   NEXT LINE NO. TO COLLECT
CPDLTCOL DS    1F   DELTA FOR COLLECT
         SPACE ,
CPEXLINE DS    F    EXEC FILE LINE NUMBER
CPEXHIPS DS    F    HIGHEST LINENO IN EXEC FILE   * MUST
CPEXLNCT DS    H    EXEC FILE LINE COUNT          * STAY
CPEXCNT  DS    H    COUNT OF PAGES IN EXEC FILE   * TOGETHER
CPEXCMCT DS    H    EXEC COMMAND COUNT WITHOUT USING TYPEWRITER
*PEXDIR  DS     5CL6   EXEC FILE DIRECTORY SPACE                JEP017
CPEXDIR  DS   10CL6    EXEC FILE DIRECTORY SPACE                JEP017