         MACRO
&NAME    HMDTIME &DSECT=YES
         LCLB  &B
&B       SETB  ('&NAME' EQ '')
         AIF   ('&DSECT' EQ 'YES').DS1
         AIF   (&B).DS1A
&NAME    DS    0CL72              AREA RETURNED BY HMDCHRON
         AGO   .DS2
.DS1A    ANOP
HMDTIME  DS    0CL72              AREA RETURNED BY HMDCHRON
         AGO   .DS2
.DS1     ANOP
         AIF   (&B).DS2A
&NAME    DSECT                    MAP OF RETURN AREA OF TIME SUBRTN
         AGO   .DS2
.DS2A    ANOP
HMDTIME  DSECT                    MAP OF RETURN AREA OF TIME SUBRTN
.DS2     ANOP
*******************************************************************
** THIS 72 BYTE AREA MAPS THE RETURN AREA FOR THE 'HMDCHRON'     **
** SUBROUTINE. THE TIME OF DAY AND DATE IS RETURNED AS MAPPED.   **
** A FULLWORD DATE FIELD CAN BE PASSED TO THE ROUTINE AND THAT   **
** VALUE WILL BE USED IN THE CALCULATIONS. IF ZEROED, THE        **
** CURRENT DATE (VIA SVC 11)  WILL BE USED IN THE COMPUTATIONS.  **
** THE ADDRESS OF THIS AREA IS IN THE SECOND WORD OF THE PLIST.  **
*******************************************************************
HMDJULDT DS    CL6                JULIAN DATE (FORM 'YY.DDD')
HMDENGDT DS    CL8                GREGORIAN DATE (FORM MM/DD/YY)
HMDMONTH DS    CL9                MONTH NAME
HMDDAYYR DS    CL11               DATE IN FORM MMM DD,YYYY
HMDDAYNO DS    H                  HALF WORD DAY NUMBER
HMDDAYNM DS    CL9                DAY OF THE WEEK
HMDTIMER DS    CL11               TIME OF DAY (24 HR FORM HH.MM.SS.HH)
HMDTIMED DS    CL8                TIME OF DAY (12 HR FORM HH.MM.SS)
HMDAMPM  DS    CL3                AM/PM INDICATOR (' AM' OR ' PM')
         AIF   (&B).DS3
HMDPAD   DS    CL(72-(*-&NAME))   PAD TO 72 BYTES
         AGO   .DS4
.DS3     ANOP
HMDPAD   DS    CL(72-(*-HMDTIME)) PAD TO 72 BYTES
.DS4     ANOP
         AIF   (&B).DS5
HMDLENTH EQU   ((*-&NAME+7)/8)*8
         AGO   .END
.DS5     ANOP
HMDLENTH EQU   ((*-HMDTIME+7)/8)*8
.END     MEND
