         MACRO
&NAME    TERME    &RC=(15)
         GBLA  &SAVESIZE
         GBLB  &FREESAVE
         GBLC  &R
&NAME    DS    0H
         L     &R.13,4(&R.13)          GET HIGHER SAVE POINTER
         AIF   (NOT &FREESAVE).RETURN
         L     &R.1,8(&R.13)           LOAD ADDRESS OF AREA
         LR    &R.2,&R.15              TEMPORARY SAVE OF REG. 15
         FREEMAIN R,LV=&SAVESIZE,A=(1)
         LR    &R.15,&R.2              RESTORE REG 15
.RETURN  ANOP
         RETURN (14,12),RC=&RC         RETURN TO CALLING MODULE
         MEND
