//DISASM JOB (87944,348496),HALL.S1BL,MSGCLASS=A,
//             USER=RH87944,PASSWORD=*
/*ROUTE  PRINT R7
//STEP1  EXEC HLASMC,CLASS='*',
//            PARMC='SYSPARM(1,ESD)'
//ASM.SYSLIB DD DSN=HALL.DISASM.SOURCE,DISP=SHR
//   DD DSN=SYS1.MACLIB,DISP=SHR
//   DD DSN=SYS1.AMODGEN,DISP=SHR
//ASM.SYSLIN   DD DSN=HALL.OBJECT(DISASM),DISP=SHR
//ASM.SYSIN DD *
*                                                                   RH
*   MODIFIED JAN 1999 BY RANDY HALL                                 RH
*      HOPEFULLY ALL MODS HAVE "RH" IN COL 69-70...                 RH
*      1) MADE THE HEX DUMP AN OPTION WITH PARM=TEXT                RH
*      2) CLEANED UP THE PARM PROCESSING                            RH
*      3) CHANGED SYSPRINT DCB TO LRECL=133 FROM 121                RH
*      4) AT LABEL GETCTL1, USE RDJFCB ON SYSLIB TO GET MBR NAME    RH
*         IF SPECIFIED AND TEST FOR SYSIN OPEN                      RH
*      5) AT LABEL FREESTRG, TEST FOR "TEXT" PARM TO PRINT HEX DUMP RH
*      6) ADDED CODE TO PRINT AN ASSEMBLER COMPILER TYPE HEADING    RH
*         WITH PAGE COUNT AND STATEMENT NUMBER                      RH
*      7) AT LABEL EOJ, ADDED CODE TO PRINT REGISTER EQUATES,       RH
*         RATHER THAN "REQU".                                       RH
*      8) AT LABEL DFMTFLD/CFL1, ADDED CODE TO PRINT DSECTS WITH    RH
*         "DS" RATHER THAN "EQU". CHANGE "AGO" FOR EQU VERSION...   RH
*      9) ADDED MORE CHARACTERS TO "PRTCHAR" TABLE                  RH
*     10) INCLUDE DSECTS FROM SYSLIB WITH "DISASPRM" COPY AT END    RH
*                                                                   RH
*                                                                   RH
*                                                                   RH
DIS      TITLE '***** DISASSEMBLY PHASE 0 *****'
         MACRO
&NAME    SVLNK &REG1,&REG2,&REG3,&IND,&LV=
         GBLC  &EQU
         GBLC  &GM
         GBLC  &CSECT
         LCLC  &REGA
         AIF   (T'&NAME EQ 'O').NOCSECT
         AIF   ('&NAME' EQ '*').NOCSECT
&CSECT   SETC  '&NAME'
&CSECT   CSECT                         NAME OF PROGRAM
         AGO   .RST
.NOCSECT ANOP
&CSECT   SETC  '*'
         CSECT                         BEGINNING OF PROGRAM
.RST     ANOP
         AIF   ('&EQU' EQ 'ON').NRQ
&EQU     SETC  'ON'
*
***REGISTER EQUATES***
*
R0       EQU   0
R1       EQU   1
R2       EQU   2
R3       EQU   3
R4       EQU   4
R5       EQU   5
R6       EQU   6
R7       EQU   7
R8       EQU   8
R9       EQU   9
R10      EQU   10
R11      EQU   11
R12      EQU   12
R13      EQU   13
R14      EQU   14
R15      EQU   15
.NRQ     ANOP
*
*******************  PROGRAM INITIALIZATION  *************************
*
         AIF   (T'&REG1 EQ 'O').NOREG
&REGA    SETC  '&REG1'
         AIF   (T'&REG2 EQ 'O').ONEREG
         USING &CSECT,&REGA,&REG2          ESTABLISH ADDRESSABILITY
         AGO   .BYUSE
.NOREG   ANOP
&REGA    SETC  'R3'
.ONEREG  USING &CSECT,&REGA              ESTABLISH ADDRESSABILITY
.BYUSE   ANOP
         STM   R14,R12,12(R13) :       STORE REGS IN HIGH SAVE AREA
         LR    &REGA,R15                  INITIALIZE BASE REG
         AIF   (T'&REG2 EQ 'O').NOLA
         LA    &REG2,4095(&REGA)       INITIALIZE THE SECOND
         LA    &REG2,1(&REG2)                BASE REGISTER
.NOLA    ANOP
         AIF   (T'&REG3 EQ 'O').NOLNK
         L     &REG3,0(R1)                GET PARAMETER LIST ADDR
.NOLNK   ANOP
         AIF (T'&IND EQ 'O').GETIT
         CNOP  0,4
         BAL   R15,SAVEAREA+72         BRANCH AROUND SAVE AREA
SAVEAREA DS    18F                     REGISTER SAVE AREA
         ST    R15,8(R13)
         ST    R13,SAVEAREA+4
         LR    R13,R15
         AGO   .NOSAVE
.GETIT   ANOP
         AIF   (T'&LV EQ 'O').GMD
&GM      SETC  '&LV'
         AGO   .DGM
.GMD     ANOP
&GM      SETC  '72'
.DGM     ANOP
*
***GET MAIN STORAGE FOR SAVE AREA***
*
         AIF   ('&GM' LT '4096').LA
         GETMAIN R,LV=&GM              GET CORE FOR SAVE AREA
         AGO   .EGM
.LA      ANOP
         LA    R0,&GM                  GET &GM BYTES
         GETMAIN R,LV=(0)
.EGM     ANOP
*
***SET UP SAVE AREA POINTERS***
*
         ST    R1,8(R13)               STORE LOW SAVE POINTER
         ST    R13,4(R1)               STORE HIGH SAVE POINTER
         LR    R13,R1                  INITIALIZE SAVE POINTER
         AIF   (T'&REG3  NE 'O').NOSAVE
         L     R1,4(R13)               GET POINTER TO RESTORE PARA REG
         L     R1,24(R1)               RESTORE PARAMETER REGISTER
.NOSAVE  ANOP
         AIF   ('&CSECT' EQ '*').EXIT
         B     *+12
         DC    CL8'&CSECT'             END INITIAL., BEGIN THIS PROG.
.EXIT    ANOP
*
*********************  END INITIALIZATION  ***************************
*
         MEND
         EJECT
DISASM   SVLNK R3,R4
         PRINT   GEN
*DISASSEMBLER PROGRAM TO CREATE AN ASSEMBLER SOURCE PROGRAM
*FROM A LOAD MODULE IN A PDS. DD CARDS REQUIRED INCLUDE
*SYSPRINT FOR MESSAGES AND DIAGNOSTICS USING BLKSIZE A MULTIPLE
*OF 121, SYSLIB SPECIFYING THE PDS CONTAINING THE MEMBER,        FIX***
*WHICH MUST BE A PDS, SYSPUNCH FOR THE ASSEMBLER SOURCE
*PROGRAM, HAVING BLKSIZE A MULTIPLE OF 80, AND SYSIN
*FOR THE CONTROL CARD INPUT. CONTROL INPUT MAY OPTIONALLY
*BE ENTERED VIA THE PARM ON THE EXECUTE CARD. CONTROL
*INFORMATION INCLUDES THE MEMBER NAME AND CSECT NAME
*TO BE DISASSEMBLED. IF CSECT NAME IS OMITTED, THE CSECT
*FOR ESD-ID 0001 WILL BE USED.
*
*
* FILES USED BY THIS PROGRAM INCLUDE THE FOLLOWING:
*
* DDNAME SYSLIB: RECFM=U. INPUT LOAD MODULE LIBRARY.
*
* DDNAME SYSPUNCH: RECFM=FB,LRECL=80. OUTPUT FILE CONTAINING
*                 DISASSEMBLED TEXT. (MAXBLK=18,960)
*
* DDNAME SYSPRINT: RECFM=FBA,LRECL=121.  PRINTED OUTPUT CONTAINING A
*                LIST OF THE ESD TABLE, RLD TABLE, AND TEXT.
*                (MAXBLK=18997)
* DDNAME LOADLIB: (OPTIONAL) NAMES A PDS CONTAINING THE
*                 MODULES OF DISASM IF DIFFERENT FROM
*                 THE STEPLIB. USED PRIMARILY FOR TSO.
*
* DDNAME SYSIN: RECFM=FB, LRECL=80. CONTROL CARD INPUT.
*
*
* THE CONTROL CARD PROVIDES THE MEMBER NAME AND CSECT NAME
* OF THE PROGRAM TO BE DISASSEMBLED. MEMBER NAME IS REQUIRED.
* IF CSECT NAME IS OMITTED, THE CSECT WITH ESDID 0001 WILL
* BE USED. FORMAT IS FREE-FORM. MEMBER NAME MUST PRECEDE CSECT
* NAME. ANY NUMBER OF BLANKS MAY PRECEDE AND FOLLOW MEMBER NAME.
* A COMMA MAY IMMEDIATELY FOLLOW MEMBER NAME IF DESIRED.
*
*
* PARM DATA FROM THE EXECUTE CARD MAY BE USED TO SPECIFY
* VALIDITY OF PRIVILEGED OR FLOATING POINT INSTRUCTIONS.
* IF NOT SPECIFIED, PRIVILEGED AND FLOATING POINT OPERATION
* CODES WILL NOT BE TREATED AS INSTRUCTION OP-CODES. TO
* INCLUDE THESE INSTRUCTIONS, CODE:
*     PARM=(SUPVR)      PRIVILEGED INSTRUCTIONS
*     PARM=(FLTPT)      FLOATING POINT INSTRUCTIONS
*     PARM=(SUPVR,FLTPT) BOTH
*
*
*PROCESSING FLOW:
* 1. PROCESS THE CONTROL INFORMATION TO OBTAIN THE MEMBER
*    AND CSECT NAMES.
* 2. ISSUE BLDL AGAINST SYSLIB TO OBTAIN DIRECTORY INFO FOR
*    THE MEMBER SPECIFIED. IF THE SPECIFIED MEMBER IS AN
*    ALIAS, RE-ISSUE A BLDL FOR THE REAL MEMBER. PRINT
*    DIRECTORY INFORMATION.
* 3. POINT TO THE MEMBER IN THE SYSLIB PDS, AND PROCESS THE
*    MEMBER. LOAD MODULES CONTAIN AN EXTERNAL SYMBOL DICTIONARY
*    FOLLOWED BY TEXT AND RELOCATION DICTIONARY INFORMATION.
*    ALL ESD INFO FOR THE MODULE PRECEDES THE FIRST CONTROL
*    RECORD. A CONTROL RECORD PRECEDES EACH BLOCK OF TEXT.
*    RLD INFO FOR THE TEXT FOLLOWS EACH TEXT BLOCK. PROCESSING
*    OF LOAD MODULE INFORMATION IS AS FOLLOWS:
*    A. BUILD AN EXTERNAL SYMBOL TABLE, USING THE CESD BLOCKS.
*    B. SEARCH FOR THE DESIRED CSECT AS THE TABLE IS BEING
*       BUILT. THIS CSECT MUST BE FOUND BEFORE THE FIRST
*       CONTROL RECORD.
*    C. READ BLOCKS UNTIL A CONTROL RECORD FOR THE DESIRED
*       CSECT IS FOUND (BY ESD-ID). WHEN FOUND, SAVE THE
*       TEXT FOR DISASSEMBLY, AND USE THE FOLLOWING RLD
*       INFORMATION TO BUILD A RELOCATION DICTIONARY TO BE USED
*       DURING DISASSEMBLY.
* 4. DISASSEMBLY USES THE EXTERNAL SYMBOL TABLE, RELOCATION
*    DICTIONARY, AND TEXT BUILT BY THE PREVIOUS STEPS.
*
*
* AUTHOR R THORNTON - NOV 1977
*
* UPDATES BY R. STYMA  JAN 1989
* UPDATE SGLOP TABLES IN PHASE 1 AND PHASE2 TO CONTAIN XA ONLY
* INSTRUCTIONS LIKE BSM, BAS, AND SO ON.  ALSO IDENTIFY BSM AND
* BAS AS BRANCH INSTRUCTIONS IN PHASES 1 AND 2.
* UPDATE INPUT BUFFER LENGTH TO CONTAIN MAX BSAM BLOCK SIZE.
* CHANGE GETMAIN LENGTHS TO CONSTANTS.
*
* UPDATED ALAN C FIELD - APR 1990
*
* UPDATES BY R. STYMA  MAR 1991
* MERGED CHANGES BY ALAN C FIELD WITH PREVIOUS CHANGES BY MYSELF
*
*
****************************************************************
*                                                              *
* PROCESS THE PARM FIELD, IF ANY.                              *
*                                                              *
****************************************************************
*
         L     R12,0(R1)               GET PARM FIELD ADDRESS
         SR    R1,R1                   CLEAR WORK REG
         ICM   R1,3,0(R12)             PICK UP PARM LENGTH
         BZ    OPENS                   NO PARM INFO ENTERED
*        CH    R1,H5                   5-BYTES OF PARM
*        BE    SGLPARM                 YES, SINGLE PARM FIELD
*        CH    R1,H11                  11-BYTES OF PARM
*        BE    DBLPARM                 YES, BOTH PARMS
*ADPARM  WTO   'INVALID PARM, SPECIFY ONLY SUPVR AND/OR FLTPT',        X
               ROUTCDE=11
*        ABEND 777,DUMP
*SGLPARM CLC   2(5,R12),=C'SUPVR'      IS PARM=SUPVR
*        BE    SUPARM                  YES
*        CLC   2(5,R12),=C'FLTPT'      PARM IS FLTPT
*        BNE   BADPARM                 NO, ERROR
*        MVI   FLPTASM,1               SET FLOATING POINT O.K.
*        B     OPENS                   CONTINUE
*DBLPARM CLC   2(5,R12),=C'SUPVR'      IS 1ST PARM SUPVR
*        BE    CK2FPT                  YES
*        CLC   2(5,R12),=C'FLTPT'      IS 1ST PARM FLTPT
*        BNE   BADPARM                 NO, ERROR
*        CLC   8(5,R12),=C'SUPVR'      IS 2ND PARM SUPVR         FIX***
*        BNE   BADPARM                 NO, ERROR
*        B     FPT2PARM                BOTH O.K.
*CK2FPT  CLC   8(5,R12),=C'FLTPT'      IS 2ND PARM FLTPT         FIX***
*        BNE   BADPARM                 YES
*FPT2PARM MVI   FLPTASM,1               SET FLOATING POINT O.K.
*SUPARM  MVI   PRIVASM,1               SET PRIVILEGED INSTR O.K.
*
*
SGLPARM  DS    0H                 PROCESS PARM                      RH
         CLC   2(4,R12),=C'TEXT'  DOES HE WANT A HEX DUMP OF MODULE RH
         BNE   SGLPARM2           NO, SEE IF FLTPT                  RH
         MVI   TEXTFLAG,1         SAY HE WANTS A DUMP               RH
         SH    R1,=H'5'           TAKE LTH OFF TOTAL PARM LTH       RH
         AH    R12,=H'5'          R12 -> TO NEXT PARM               RH
         SPACE 1                                                    RH
SGLPARM2 DS    0H                                                   RH
         CLC   2(5,R12),=C'FLTPT' IS PARM FLTPT                     RH
         BNE   SGLPARM3           NO, SEE IF SUPVR
         MVI   FLPTASM,1               SET FLOATING POINT O.K.
         SH    R1,=H'6'           TAKE LTH OFF TOTAL PARM LTH       RH
         AH    R12,=H'6'          R12 -> TO NEXT PARM               RH
         SPACE 1                                                    RH
SGLPARM3 DS    0H                                                   RH
         CLC   2(5,R12),=C'SUPVR' IS PARM SUPVR                     RH
         BNE   SGLPARM4           NO, SEE IF END                    RH
         MVI   PRIVASM,1          SET PRIVILEGED INSTR O.K.         RH
         SH    R1,=H'6'           TAKE LTH OFF TOTAL PARM LTH       RH
         AH    R12,=H'6'          R12 -> TO NEXT PARM               RH
         SPACE 1                                                    RH
SGLPARM4 DS    0H                                                   RH
         LTR   R1,R1              ANY PARMS LEFT ?                  RH
         BP    SGLPARM            YES, GO CHECK IT OUT              RH
*                                                                   RH
OPENS    RDJFCB LOADLIB                WAS LOADLIB DD CARD INCLUDED
         LTR   R15,R15                 JFCB READ O.K.
         BNZ   OPEN1                   NO, DONT OPEN
         OPEN  LOADLIB                 GOT DD CARD, OPEN FILE
*
****************************************************************
*                                                              *
* GET STORAGE FOR THE SYMBOL TABLE, RLD TABLE, AND DATA-ONLY   *
* TABLES, AND OPEN FILES.                                      *
*                                                              *
****************************************************************
*
OPEN1    OPEN  (SYSPRINT,OUTPUT,SYSPUNCH,OUTPUT)
         OPEN  (SYSLIB,,SYSIN)         OPEN FILES
*        TM    SYSIN+48,X'10'          DID SYSIN OPEN O.K.          RH
*        BZ    NOCTL                   NO                           RH
         BAL   R9,GETCTL               EXTRACT DESIRED MEMBER AND CSECT
         BAL   R9,BLDL                 ISSUE BLDL AND PRINT
         MVI   CCAT,0                  INSURE TTR0
         POINT SYSLIB,TTRMOD           POINT TO 1ST BLOCK OF MODULE
*        GETMAIN R,LV=20000            GET BUFFER STORAGE
*        GET BUFFER STORAGE
         GETMAIN RU,LV=32768,BNDRY=PAGE,LOC=BELOW
         ST    R1,BUFAD                SAVE BUFFER ADDRESS
*        GETMAIN R,LV=38000            GET SYMBOL TABLE STORAGE
         GETMAIN R,LV=SYMTABL          GET SYMBOL TABLE STORAGE
         ST    R1,SYMTBAD              SAVE SYMBOL TABLE ADDRESS
         ST    R1,CURRSYM              SAVE CURRENT SYMBOL ADDR
         MVI   0(R1),X'FF'             TABLE END INDIC
         A     R1,ENDSYM               COMPUTE END ADDR
         ST    R1,ENDSYM               STORE TBL END ADDR
*        GETMAIN R,LV=60000            GET RLD TABLE STORAGE
         GETMAIN R,LV=RLDTABL          GET RLD TABLE STORAGE
         ST    R1,RLDTBL               SAVE RLD TABLE ADDRESS
         ST    R1,CURRLD               SAVE CURRENT RLD ADDR
         MVI   0(R1),X'FF'             TABLE END INDIC
         A     R1,ENDRLD               COMPUTE END ADDR
         ST    R1,ENDRLD               STORE TBL END ADDR
*        GETMAIN R,LV=1544             GET DATA ONLY TABLE STORAGE
         GETMAIN R,LV=DATOLEN+8        GET DATA ONLY TABLE STORAGE
         ST    R1,DATONLY              SAVE TBL ADDRESS
         MVC   0(3,R1),HIVAL           SET END VALUE
         ST    R1,DATOCUR              SET CURRENT ADDRESS
         A     R1,ENDATO               COMPUTE TABLE END ADDR
         ST    R1,DATOEND              SAVE END ADDR
         MVC   PRT+15(29),=C'*** EXTERNAL SYMBOL TABLE ***'
         MVI   PCC,C'-'                SET SKIP 3 LINES
         BAL   R9,PRINT                PRINT
         MVC   PRTLINE(LSYMHDR),SYMHDR SYM TBL HEADER               RH
         BAL   R9,PRINT                PRINT
*
*
*
****************************************************************
*                                                              *
* MAINLINE PROCESSING FOR THE LOAD MODULE. THE DIRECTORY ENTRY *
* AND TEXT ARE PROCESSED.                                      *
*                                                              *
****************************************************************
*
MAINLINE EQU   *                       MAINLINE ROUTINE
         L     R6,BUFAD                GET BUFFER ADDRESS
         READ  DECB,SF,SYSLIB,(6),'S'  READ BLOCK FROM MEMBER
         CHECK DECB                    AWAIT COMPLETION
         CLI   0(R6),X'20'             CESD RECORD
         BNE   TESTOTHR                NO
         BAL   R9,CESDREC              PROCESS CESD RECORDS
         B     MAINLINE                GO READ AGAIN
TESTOTHR LA    R9,CNTLRECS             ASSUME CONTROL RECORD
         CLI   0(R6),1                 IT IS CONTROL
         BE    PERFORM                 YES
         CLI   0(R6),5                 IS IT CONTROL
         BE    PERFORM                 YES
         CLI   0(R6),13                IS IT CONTROL
         BE    PERFORM                 YES
         LA    R9,RLDRECS              ASSUME RLD RECORD
         CLI   0(R6),2                 IS IT RLD
         BE    PERFORM                 YES
         CLI   0(R6),6                 IS IT RLD
         BE    PERFORM                 YES
         CLI   0(R6),14                IS IT RLD
         BE    PERFORM                 YES
         LA    R9,CTRLRECS             ASSUME CONTROL AND RLD
         CLI   0(R6),3                 IS IT CTL AND RLD
         BE    PERFORM                 YES
         CLI   0(R6),7                 IS IT CTL AND RLD
         BE    PERFORM                 YES
         CLI   0(R6),15                IS IT CTL AND RLD
         BE    PERFORM                 YES
         B     MAINLINE                NONE OF THESE, SKIP
PERFORM  TM    PROCESS,X'80'           WAS CSECT FOUND
         BZ    MISSCS                  NO, ERROR
         BALR  R9,R9                   PERFORM APPROPRIATE ROUTINE
         TM    PROCESS,X'40'           MODULE PROCESSING DONE
         BZ    MAINLINE                NO, GO READ AGAIN
         MVI   EOFSW+1,0               SET END OF FILE SWITCH
         B     ENDINIT                 GO COMPLETE PROCESSING
*
*
*
****************************************************************
*                                                              *
* PROCESS LOAD MODULE CONTROL RECORDS. THESE RECORDS PRECEDE   *
* TEXT RECORDS, WHICH ARE READ AND PLACED IN STORAGE IN CONTIG-*
* UOUS LOCATIONS SO THAT THE TEXT FOR THE DESIRED CSECT WILL   *
* ALL BE IN STORAGE FOR THE REMAINDER OF DISASSEMBLY.          *
*                                                              *
****************************************************************
*
CNTLRECS EQU   *                       CONTROL RECORD PROCESSING
         ST    R9,CT9                  SAVE RETURN ADDR
         SR    R8,R8                   CLEAR WORK
         ICM   R8,7,9(R6)              LKED ASGND @ OF TXT
         TM    0(R6),X'08'             RECORD PRECEDES LAST RECORD OF M
         BZ    CNCKTYP                 NO
         OI    PROCESS,X'40'           YES, SHOW PROCESSING COMPLETE
CNCKTYP  TM    0(R6),X'02'             CONTROL AND RLD
         BO    CNPASRLD                YES
         LA    R12,16(R6)              @ CESD ENTRY NBR
         B     CNCKESD                 CONTINUE
CNPASRLD LH    R12,6(R6)               GET RLD SECTION LENGTH
         LA    R12,16(R6,R12)          @ CESD ENTRY NBR
CNCKESD  LH    R11,4(R6)               LENGTH OF CONTROL INFO SECTION
         SRL   R11,2                   COMPUTE NBR CNTL ENTRIES
         SR    R10,R10                 OFFSET TO 1ST BYTE
         SR    R9,R9                   LENGTH OF TEXT
CNCKESD1 CLC   ESDID,0(R12)            THIS THE DESIRED ESD   FIX***
         BE    CNFNDIT                 YES
         AH    R10,2(R12)              MAINTAIN OFFSET TO 1ST TEXT BYTE
         LA    R12,4(R12)              TO NEXT CNTL ENTRY
         BCT   R11,CNCKESD1            LOOP THRU CNTL ENTRIES  FIX***
         B     READTEXT                GO READ FOLLOWING TEXT
CNFNDIT  LH    R9,2(R12)               GET TEXT LENGTH
READTEXT READ  DECB,SF,,(6),MF=E       READ FOLLOWING TEXT RECORD
         CHECK DECB                    AWAIT COMPLETION
         LTR   R9,R9                   DOES IT CONTAIN DESIRED TEXT
         BZ    CTXIT                   NO, SKIP IT
         S     R8,START                (-) OFFSET IN MODULE    FIX***
         AR    R8,R10                  ADD OFFSET OF PORTION IN RCD  **
*           R8 SHOULD NOW CONTAIN THE OFFSET WITHIN THE CSECT
*           THAT THIS BLOCK CONTAINS (TRICKY).
*
         A     R10,BUFAD               @ 1ST TEXT BYTE
***      S     R8,START    MOVED UP    RELATIVIZE TEXT ADDR    FIX***
         A     R8,TXTSTRT              @ PLACE TO MOVE TEXT
         LR    R11,R9                  COPY LENGTH TO MOVE
         MVCL  R8,R10                  MOVE TEXT TO STORAGE
CTXIT    L     R9,CT9                  GET RETURN ADDR
         BR    R9                      EXIT
*
*
*
****************************************************************
*                                                              *
* PROCESS RLD RECORDS. A TABLE OF RLD DATA IS BUILT WHICH WILL *
* LATER BE USED TO BUILD PROGRAM LABELS AND ADCONS.            *
*                                                              *
****************************************************************
*
RLDRECS  EQU   *                       RLD RECORD PROCESSING
         TM    0(R6),X'08'             LAST RECORD OF MODULE
         BZ    RLSV9                   NO
         OI    PROCESS,X'40'           SHOW PROCESSING COMPLETE
RLSV9    ST    R9,RL9                  SAVE RETURN ADDR
RLDSW    NOP   RLDST                   FIRST TIME SWITCH
         MVI   RLDSW+1,C'0'            RESET 1ST TIME SW
         MVC   PRT+15(20),=C'***** RLD INFO *****'
         MVI   PCC,C'-'                SKIP 3 LINES
         BAL   R9,PRINT                PRINT
         MVC   PRTLINE(LRLDHDR),RLDHDR RLD HEADER                   RH
         BAL   R9,PRINT                PRINT RLD HEADER
RLDST    LH    R8,6(R6)                NBR BYTES OF RLD DATA
         LA    R6,16(R6)               @ 1ST BYTE OF RLD DATA
         AR    R8,R6                   END OF RLD DATA ADDR
         L     R7,CURRLD               @ NEXT RLD TBL ENTRY
         USING RLDTBLD,R7
         LH    R10,0(R6)               RELOCATION POINTER
         LH    R11,2(R6)               POSITION POINTER
         LA    R6,4(R6)                PASS POINTERS
RLDNXT   CLC   1(3,R6),START+1         RLD ADDR BELOW CSECT
         BL    RLDSTEP                 LOW, IGNORE
         CLC   1(3,R6),END+1           RLD ADDR ABOVE CSECT
         BH    RLDSTEP                 HIGH, IGNORE
         C     R7,ENDRLD               END OF RLD TBL
         BE    RLDFULL                 YES, ERROR
         STH   R10,RLDRP               SAVE RELOC PTR
         STH   R11,RLDPP               POS PTR
         PACK  RLDTYPE,0(1,R6)         INVERT FLAG BYTE
         NI    RLDTYPE,X'0F'           CLEAR HI-ORDER
         CLI   RLDTYPE,9               UNRESOLVED
         BNE   RLDMOVLN                NO
         MVI   RLDTYPE,8               YES, USE PREFERRED VALUE
RLDMOVLN MVC   RLDLEN,0(R6)            FLAG BYTE
         NI    RLDLEN,X'0F'            CLEAR HI-ORDER
         SR    R12,R12                 CLEAR WORK
         IC    R12,RLDLEN              PICK UP BYTE
         SRL   R12,2                   SHIFT OUT DIR, IND BITS
         LA    R12,1(R12)              ADD 1 = LENGTH
         STC   R12,RLDLEN              LENGTH CODE
         MVI   RLDDIR,C'+'             ASSUME POS RELOC
         TM    0(R6),2                 IS IT POSITIVE
         BZ    RLADMV                  YES
         MVI   RLDDIR,C'-'             NO, SHOW NEGATIVE
RLADMV   SR    R1,R1                   CLEAR WORK REG
         ICM   R1,7,1(R6)              PICK UP ADDRESS
         S     R1,START                RELATIVIZE WITHIN CSECT
         STCM  R1,7,RLDADDR            SAVE RELATIVE ADDRESS
         LA    R12,RLDRP               @ RELOC PTR
         BAL   R9,HEXPRT2              CONVERT
         MVC   PRT+6(4),PRTABL         RELOC PTR
         LA    R12,RLDPP               @ POS PTR
         BAL   R9,HEXPRT2              CONVERT
         MVC   PRT+14(4),PRTABL        POS PTR
         MVC   PRT+24(4),=C'ACON'      ASSUME A TYPE ADCON
         CLI   RLDTYPE,0               IS IT ADCON
         BE    RLDLN                   YES
         MVC   PRT+24(4),=C'VCON'      ASSUME VCON
         CLI   RLDTYPE,1               IS IT VCON
         BE    RLDLN                   YES
         MVC   PRT+22(6),=C'PRDISP'    ASSUME PSEUDO REG DISPL
         CLI   RLDTYPE,2               IS IT P.R. DISPL
         BE    RLDLN                   YES
         MVC   PRT+22(6),=C'PRCUM'     ASSUME PSEUDO REG CUMUL DISPL
         CLI   RLDTYPE,3               IS IT P.R. CUM DISPL
         BE    RLDLN                   YES
         MVC   PRT+21(10),=C'UNRESOLVED' ASSUME UNRESOLVED
         CLI   RLDTYPE,8               IS IT UNRESOLVED
         BE    RLDLN                   YES
         MVC   PRT+21(10),BLANX        CLEAR FIELD
         MVC   PRT+24(3),=C'??:'
         LA    R12,RLDTYPE             @ TYPE
         BAL   R9,HEXPRT1              CONVERT
         MVC   PRT+27(1),PRTABL+1      TYPE
RLDLN    MVC   PRT+35(1),RLDLEN        LENGTH
         OI    PRT+35,C'0'             CLEAR ZONE
         MVC   PRT+42(1),RLDDIR        RELOCATION DIRECTION
         LA    R12,RLDADDR             @ ADDRESS
         BAL   R9,HEXPRT3              CONVERT
         MVC   PRT+46(6),PRTABL        ADDRESS
         XC    RLDNAME(9),RLDNAME      CLEAR
         LH    R15,RLDRP               GET RELOCATION POINTER
         BCTR  R15,R0                  DEDUCT 1
         LTR   R15,R15                 TEST DIFFERENCE
         BM    RLPRT                   NEG, ERROR
         MH    R15,SYMLEN              TIMES SYM TBL ENTRY LENG
         A     R15,SYMTBAD             @ ESD SYMBOL TBL ENTRY
         C     R15,CURRSYM             PAST END OF TABLE
         BH    RLPRT                   YES, ERROR
         USING SYMTBL,R15
         MVC   RLDNAME,EXTSYM          ESD SYMBOL TO RLD TBL ENTRY
         MVC   RLDESDTP,TYPSYM         ESD TYPE TO RLD ENTRY
         DROP  R15
         MVC   PRT+60(8),RLDNAME       NAME TO PRINT
         MVC   PRT+70(2),=C'LR'        ASSUME LR
         CLI   RLDESDTP,3              IS IT LR
         BE    RLPRT                   YES
         MVC   PRT+70(2),=C'SD'        ASSUME SD
         CLI   RLDESDTP,0              IS IT SD
         BE    RLPRT                   YES
         MVC   PRT+70(2),=C'ER'        ASSUME ER
         CLI   RLDESDTP,2              IS IT ER
         BE    RLPRT                   YES
         MVC   PRT+70(2),=C'PC'        ASSUME PC
         CLI   RLDESDTP,4              IS IT PC
         BE    RLPRT                   YES
         MVC   PRT+70(2),=C'PR'        ASSUME PR
         CLI   RLDESDTP,6              IS IT PR
         BE    RLPRT                   YES
         MVC   PRT+70(2),=C'CM'        ASSUME CM
         CLI   RLDESDTP,5              IS IT CM
         BE    RLPRT                   YES
         MVC   PRT+70(2),=C'WX'        ASSUME WX
         CLI   RLDESDTP,X'0A'          IS IT WX
         BE    RLPRT                   YES
         MVC   PRT+70(4),=C'NULL'      ASSUME NULL
         CLI   RLDESDTP,7              IS IT NULL
         BE    RLPRT                   YES
         MVC   PRT+70(6),=C'E/STAB'    ASSUME E/STAB
         CLI   RLDESDTP,X'0F'          IS IT E/STAB
         BE    RLPRT                   YES
         MVC   PRT+70(6),=C'??????'    UNKNOWN TYPE
RLPRT    BAL   R9,PRINT                PRINT
         CLC   RLDNAME,CSECT           RLD NAME IS CSECT NAME
         BNE   GOODRLD                 NO
         CLC   RLDADDR,XZROS           RELATIVE OFFSET IS ZERO
         BE    RLDSTEP                 YES, IGNORE ENTRY
GOODRLD  LA    R7,L'RLDENT(R7)         TO NEXT TBL ENTRY
RLDSTEP  TM    0(R6),1                 NEXT ITEM HAS REL AND POS PTRS
         BO    RLSAME                  NO
         LH    R10,4(R6)               PICK UP NEW REL PTR
         LH    R11,6(R6)               PICK UP NEW POS PTR
         LA    R6,4(R6)                STEP OVER 4 BYTES
RLSAME   LA    R6,4(R6)                TO NEXT RLD ITEM
         CR    R6,R8                   END OF RLD DATA
         BL    RLDNXT                  NO
         MVI   0(R7),X'FF'             SET TBL END INDIC
         ST    R7,CURRLD               SET NEW CURRENT ADDRESS
         L     R9,RL9                  GET RETURN ADDR
         BR    R9                      EXIT
         DROP  R7
*
*
*
****************************************************************
*                                                              *
* PROCESS CONTROL AND RLD RECORDS. THESE RECORDS CONTAIN BOTH  *
* RLD AND CONTROL INFORMATION, AND ARE PROCESSED BY BOTH       *
* THE RLDRECS AND CNTLRECS ROUTINES.                           *
*                                                              *
****************************************************************
*
CTRLRECS EQU   *                       CONTROL AND RLD RECORDS
         ST    R9,CR9                  SAVE RETURN ADDR
         BAL   R9,RLDRECS              PROCESS RLD DATA
         L     R6,BUFAD                RESET BUFFER ADDRESS
         BAL   R9,CNTLRECS             PROCESS CONTROL DATA
         L     R9,CR9                  GET RETURN ADDR
         BR    R9                      EXIT
*
*
*
*
*
*
****************************************************************
*                                                              *
* PROCESS COMPOSITE ESD RECORDS. DATA FROM THESE RECORDS IS    *
* PLACED IN THE SYMBOL TABLE, AND IS USED TO CREATE PROGRAM    *
* ENTRY STATEMENTS, AND TO IDENTIFY THE NAMES OF EXTERNAL      *
* SYMBOLS USED BY THE PROGRAM.                                 *
*                                                              *
****************************************************************
*
CESDREC  EQU   *                       CESD RECORD PROCESSING
         ST    R9,CES9                 SAVE RETURN
         L     R7,CURRSYM              GET SYMBOL TBL ADDR
         USING SYMTBL,R7
         LH    R10,4(R6)               GET ESD ID OF 1ST ITEM
         LH    R8,6(R6)                NBR BYTES OF ESD DATA
         SRL   R8,4                    COMPUTE NBR ENTRIES
         LA    R6,8(R6)                STEP TO 1ST RECORD ESD ITEM
CESDNXT  C     R7,ENDSYM               END OF TABLE
         BNL   SYMFULL                 YES, ERROR
         MVC   EXTSYM,0(R6)            SYMBOL NAME
         MVC   TYPSYM,8(R6)            TYPE
         NI    TYPSYM,X'0F'            CLEAR BITS 0-3