RSMA     TITLE 'RSMANAL - RSM ANALYSIS.'
        PRINT  OFF
         MACRO           SAVE AREA'S TANK MANAGEMENT
&NAME   @ENTER &DUMMY
        CNOP   0,4
         USING &NAME,R11           SET LOCAL ADDRESSABILITY
&NAME    STM   R14,R12,12(R13)     SAVE CALLER'S REGISTERS
         LR    R11,R15             SET LOCAL BASE REGISTER
         CP    TANKNO,TANKMX       CONTROL TANK AVAILABILITY
         BNL   STOVER              OVERFLOW
         AP    TANKNO,TANKUP       UP TANKS NUMBER
         LA    R15,18*4(R13)       NEXT SAVE AREA
         XC    0(18*4,R15),0(R15)  CLEAR IT
         ST    R15,8(R13)          LINK SAVE AREAS
         ST    R13,4(R15)
         LR    R13,R15             ACTIVATE NEW SAVE AREA
         MEND
         MACRO           SAVE AREA'S TANK MANAGEMENT
&NAME   @EXIT  &DUMMY
&NAME    CP    TANKNO,TANKUP       CONTROL TANK AVAILABILITY
         BL    STUNDER             UNDERFLOW
         SP    TANKNO,TANKUP       DOWN TANKS NUMBER
         L     R13,4(R13)          PREVIOUS SAVE AREA
         ST    R15,16(R13)         SET REGISTER 15 (RC)
         LM    R14,R12,12(R13)     RESTORE CALLER'S REGISTERS
         MVI   12(R13),X'FF'       INDICATE RETURN EXECUTED
         BR    R14                 RETURN
         DROP  R11                 KILL LOCAL ADDRESSABILITY
         MEND
         MACRO           CALL ROUTINE
&NAME   @CALL  &WHERE
         AIF   ('&WHERE' EQ '').CO
&NAME    L     R15,=A(&WHERE)      GET ENTRY POINT
         BASR  R14,R15             GO TO ROUTINE
         MEXIT
.CO      ANOP
&NAME    BASR  R14,R15             GO TO ROUTINE
         MEND
         MACRO           GENERATE TABLE ENTRY
&NAME   @TPF   &Q,&I,&F
         AIF   ('&F' EQ '').NN
&NAME    DC    3F'0',XL1'&Q',AL1(&F),CL34&I
         MEXIT
.NN      ANOP
&NAME    DC    3F'0',XL1'&Q',AL1(0),CL34&I
         MEND
         MACRO           GENERATE TABLE ENTRY
&NAME   @TPE   &Q,&I
&NAME    DC    3F'0',XL1'&Q',AL1(0),CL34&I
         MEND
        PRINT  ON
         SPACE 1
RSMANAL  START 0
         SPACE 1
* * * * * * * * * * * * * * * * * * * * * * * * * * * * * * * * * * * *
* * * * * * * * *                                     * * * * * * * * *
* * * * * * * * *            RSM  ANALYSIS            * * * * * * * * *
* * * * * * * * *                                     * * * * * * * * *
* * * * * * * * * * * * * * * * * * * * * * * * * * * * * * * * * * * *
*                                                                     *
* AUTHOR :     P.A. MOINIL                                            *
* --------     COMPUTING CENTRE                                       *
*              J.R.C. - ISPRA ESTABLISHMENT                           *
*              21020 ISPRA (VA), ITALY                                *
*                                                                     *
* - - - - - - - - - - - - - - - - - - - - - - - - - - - - - - - - - - *
*                                                                     *
* PURPOSE :    THIS PROGRAM PRODUCES A LISTING OF RSM INFORMATION     *
* ---------    FOR SPECIFIED STORAGE AREAS.                           *
*                                                                     *
* CALL OF THE PROGRAM :                                               *
* ---------------------                                               *
*                                                                     *
*        //LIST   EXEC  PGM=RSMANAL,PARM='...'                        *
*        //SYSPRINT DD  SYSOUT=A                                      *
*        //SYSSNAP  DD  SYSOUT=A (ONLY IF DEBUG NEEDED)               *
*                                                                     *
*        WHERE ... IS USED TO SPECIFY THE DESIRED STORAGE AREAS,      *
*              AND MAY BE ANY ONE OF THE FOLLOWING KEYWORDS :         *
*                   VSM  - VIRTUAL STORAGE MAP                        *
*                   PFTE - PAGE FRAME TABLE ENTRIES                   *
*                   ESTE - EXTENDED STORAGE TABLE ENTRIES             *
*              OR IF MORE THAN ONE DESIRED, THEY MUST BE SEPARATED    *
*              BY A COMMA.                                            *
*                   I.E. : PARM='PFTE,ESTE'                           *
*        ALSO ALTERNATE DD-NAMES MAY BE SPECIFIED FOR THE LIST OR     *
*              SNAP OUTPUT, AS SHOWN BELOW :                          *
*                   PARM='L=MYPRINT,S=MYSNAP'                         *
*        IF NO PARM= IS GIVEN, DEFAULT IS ASSUMED LIKE :              *
*                   PARM='PFTE,L=SYSPRINT,S=SYSSNAP'                  *
*                                                                     *
* - - - - - - - - - - - - - - - - - - - - - - - - - - - - - - - - - - *
         SPACE 1
MXSTN    EQU   10                  MAXIMUM NUMBER OF SAVE-AREAS USE
*                                    TO BE GENERATED AS TANKS
WKLEN    EQU   (MXSTN*18)*4        SAVE AREAS TANKS
KB       EQU   1024                1K BYTES
         EJECT
        $DEFREG ,
        $XENT  BASE=R12,LV=WKLEN,TYPE=RENT
         EJECT
*------- INITIALIZATION
         SPACE 1
         ST    R13,SVFSVA          SAVE ADDRESS OF FIRST S.A.
         LA    R2,18*4(R13)        TANKS INITIALIZATION
         L     R3,=A(WKLEN-(18*4))
         LR    R4,R2
         XR    R5,R5
         MVCL  R2,R4
         LA    R2,MXSTN
         CVD   R2,DBLWRD
         MVC   TANKMX(L'TANKMX),DBLWRD+L'DBLWRD-L'TANKMX
         SPACE 1
*------- START PROCESSING
         SPACE 1
        @CALL  GETPARM             R1 = ADDRESS OF PARM=
        @CALL  DOVSM               DO VSM MAP
        @CALL  COLLAS              COLLECT AS-ID'S
         TM    SWSEL,SPFTE
         BZ    ESTERQ
        @CALL  PFTELS              PFTE'S LIST
ESTERQ   TM    SWSEL,SESTE
         BZ    SETRC
        @CALL  ESTELS              ESTE'S LIST
         SPACE 1
*------- TERMINATION
         SPACE 1
SETRC    XR    R10,R10
LEAVE   $PCLOSE
         ICM   R0,B'1111',LGASTB
         BZ    QUIT
         L     R1,SCASTB
        FREEMAIN R,A=(1),LV=(0)    FREE AREA
QUIT    $XRET  CC=(R10),LV=WKLEN,TYPE=RENT
         SPACE 1
*------- ERRORS DIAGNOSE
         SPACE 1
STOVER   XR    R0,R0
         B     STUNDER+L'STUNDER
STUNDER  LR    R0,R13
         MVC   MSGERRT(18),=CL18'SAVE AREA''S TANKS '
         LTR   R0,R0
         BNZ   *+L'*+10
         MVC   MSGERRT+18(33),=CL33'OVERFLOW (CHECK VALUE OF "MXSTN")'
         B     *+L'*+6
         MVC   MSGERRT+18(33),=CL33'UNDERFLOW *** S C R A M B L E ***'
         B     ERRMSG
ERRV    $TSWXA 24,EXPAND=ONLY      BACK TO 24-BIT MODE
         MVC   MSGERRT(28),=CL28'AS-ID''S SPACE TABLE OVERFLOW'
         B     ERRMSG
ERRE     MVC   MSGERRT(24),=CL24'UNKNOWN ESTE QUEUE ID : '
         USING ESTE,R5
         UNPK  MSGERRT+24(3),ESTQID(2)
         DROP  R5
         B     ERRMTR
ERRP     MVC   MSGERRT(24),=CL24'UNKNOWN PFTE QUEUE ID : '
         USING PFTE,R5
         UNPK  MSGERRT+24(3),PFTQID(2)
         DROP  R5
ERRMTR   TR    MSGERRT+24(2),TRTAB-C'0'
         MVI   MSGERRT+26,C' '
         B     ERRMSG
ERRG     MVC   MSGERRT(19),=CL19'GFDATE ERROR / RC ='
         CVD   R15,DBLWRD          DISPLAY R.C.
         MVC   MSGERRT+19(4),=XL4'40202120'
         ED    MSGERRT+19(4),DBLWRD+6
         B     ERRMSG
ERRS     MVC   MSGERRT(17),=CL17'SNAP ERROR / RC ='
         CVD   R15,DBLWRD          DISPLAY R.C.
         MVC   MSGERRT+17(4),=XL4'40202120'
         ED    MSGERRT+17(4),DBLWRD+6
         B     ERRMSG
ERRX     MVC   MSGERRT(18),=CL18'PRINT ERROR / RC ='
         CVD   R15,DBLWRD          DISPLAY R.C.
         MVC   MSGERRT+18(4),=XL4'40202120'
         ED    MSGERRT+18(4),DBLWRD+6
         B     ERRMSG
ERRZ     MVC   MSGERRT(27),=CL27'INVALID PARAMETER SPECIFIED'
ERRMSG   L     R13,SVFSVA          BACK TO FIRST S.A.
        WTO    MF=(E,MSGERR)       LOG ERROR MESSAGE
         LA    R10,16
         ICM   R1,B'1111',RSMADDR
         BZ    LEAVE
         L     R0,RSMLGTH
        FREEMAIN R,A=(1),LV=(0)    FREE AREA
         B     LEAVE
         SPACE 1
*------- EDIT SIZE ROUTINE
*              R0 = NUMBER OF PAGES
*              R1 = WORK REGISTER
*              R2 = WORK REGISTER
*              R3 = TARGET EDIT FIELD (CL43) ADDRESS
*              R10 = LINK REGISTER
*              R14 = INTERNAL LINK REGISTER
         SPACE 1
EDSZ     MVI   0(R3),C' '
         MVC   1(42,R3),0(R3)
         LTR   R0,R0
         BP    *+L'*+6
         MVI   7(R3),C'0'
         BR    R10
         CVD   R0,DBLWRD
         MVC   0(8,R3),=XL8'4020202020202120'
         ED    0(8,R3),DBLWRD+4
         MVI   9(R3),C'('
         LA    R3,10(R3)
         XR    R1,R1
         SRDL  R0,8
         SRL   R1,22
         LR    R2,R1
         XR    R1,R1
         SRDL  R0,10
         SRL   R1,22
         LTR   R0,R0
         BNP   EDSZ1
         CVD   R0,DBLWRD
         BAS   R14,EDSZN
         MVI   0(R3),C'G'
EDSZ1    LTR   R1,R1
         BNP   EDSZ2
         CLI   0(R3),C' '
         BE    *+L'*+8
         MVI   1(R3),C'+'
         LA    R3,2(R3)
         CVD   R1,DBLWRD
         BAS   R14,EDSZN
         MVI   0(R3),C'M'
EDSZ2    LTR   R2,R2
         BNP   EDSZ3
         CLI   0(R3),C' '
         BE    *+L'*+8
         MVI   1(R3),C'+'
         LA    R3,2(R3)
         CVD   R2,DBLWRD
         BAS   R14,EDSZN
         MVI   0(R3),C'K'
EDSZ3    MVI   1(R3),C')'
         BR    R10
EDSZN    MVC   0(8,R3),=XL8'4020202020202120'
         ED    0(8,R3),DBLWRD+4
         CLI   0(R3),C' '
         BNE   *+L'*+10
         MVC   0(8,R3),1(R3)
         B     *-14
         LA    R3,1(R3)
         CLI   0(R3),C' '
         BNE   *-8
         BR    R14
         SPACE 1
*------- PRINT DATA ROUTINE
*              R2 = ADDRESS OF LINE TO BE PRINTED
*              R10 = LINK REGISTER
         SPACE 1
PLNE     CP    NLN,=PL2'+55'
         BL    PLNEN
         AP    NPG,=PL1'+1'
         MVC   TIT1D,=XL6'402020202120'
         ED    TIT1D,NPG
        $PRINT TIT1,,DDLIST
         LTR   R15,R15
         BNZ   ERRX
         ZAP   NLN,=PL1'+1'
         CLI   0(R2),C'0'
         BE    PLNEN
         MVI   0(R2),C'0'
         OI    SWITCH,PFDSP
PLNEN   $PRINT (R2),,DDLIST
         LTR   R15,R15
         BNZ   ERRX
         AP    NLN,=PL1'+1'
         CLI   0(R2),C'0'
         BNER  R10
         AP    NLN,=PL1'+1'
         TM    SWITCH,PFDSP
         BZR   R10
         MVI   0(R2),C' '
         NI    SWITCH,255-PFDSP
         BR    R10
         SPACE 1
*------- SNAP DATA ROUTINE
*              R2 = ADDRESS OF LINE TO BE PRINTED
*              R10 = LINK REGISTER
         SPACE 1
LSSNAP   CP    NLS,=PL2'+55'
         BL    LSNEN
         AP    LPG,=PL1'+1'
         MVC   TIT1D,=XL6'402020202120'
         ED    TIT1D,LPG
        $PRINT TIT1,,DDSNAP
         LTR   R15,R15
         BNZ   ERRS
         ZAP   NLS,=PL1'+1'
         CLI   0(R2),C'0'
         BE    LSNEN
         MVI   0(R2),C'0'
         OI    SWITCH,PFDSP
LSNEN   $PRINT (R2),,DDSNAP
         LTR   R15,R15
         BNZ   ERRS
         AP    NLS,=PL1'+1'
         CLI   0(R2),C'0'
         BNER  R10
         AP    NLS,=PL1'+1'
         TM    SWITCH,PFDSP
         BZR   R10
         MVI   0(R2),C' '
         NI    SWITCH,255-PFDSP
         BR    R10
         EJECT
*------- VIRTUAL STORAGE MEMORY MAP ADDRESSES TABLE
         SPACE 1
        CNOP   0,4
VSMA     EQU   0,4                 TABLE DISPLACEMENTS
VSMC     EQU   4,4
VSMV     EQU   8,4
VSMN     EQU   12,16
VSMSCAN  DC    A(L'VSMMAT,VSMMATE,VSMMAT)
VSMMAT   DS    0CL28
ALEPVT   DC    A(*-*,0,0)          LOWEST PRIVATE EXT. ADDRESS
         DC    CL16'Private Ext.'
ALECSA   DC    A(*-*,0,0)          LOWEST CSA EXT. ADDRESS
         DC    CL16'CSA Ext.'
ALEFLPA  DC    A(*-*,0,0)          LOWEST FLPA (MLPA+FLPA) EXT. ADDRESS
TTXE     DC    CL16' '
ALEPLPA  DC    A(*-*,0,0)          LOWEST PLPA EXT. ADDRESS
         DC    CL16'PLPA Ext.'
ALESQA   DC    A(*-*,0,0)          LOWEST SQA EXT. ADDRESS
         DC    CL16'SQA Ext.'
         DC    A(X'01000000',0,0)  LOWEST NUCLEUS EXT. ADDRESS
         DC    CL16'Nucleus Ext.'
ALNUC    DC    A(*-*,0,0)          LOWEST NUCLEUS ADDRESS
         DC    CL16'Nucleus'
ALSQA    DC    A(*-*,0,0)          LOWEST SQA ADDRESS
         DC    CL16'SQA'
ALPLPA   DC    A(*-*,0,0)          LOWEST PLPA ADDRESS
         DC    CL16'PLPA'
ALFLPA   DC    A(*-*,0,0)          LOWEST FLPA (FLPA+MLPA) ADDRESS
TTX      DC    CL16' '
ALCSA    DC    A(*-*,0,0)          LOWEST CSA ADDRESS
         DC    CL16'CSA'
ALPVTV   DC    A(*-*,0,0)          LOWEST PRIVATE V=V ADDRESS
         DC    CL16'Private V=V'
ALPVTR   DC    A(*-*,0,0)          LOWEST PRIVATE V=R ADDRESS
         DC    CL16'Private V=R'
         DC    A(0,0,0)            LOWEST PSA + SYSTEM ADDRESS
         DC    CL16'PSA + System'
VSMMATE  EQU   *-L'VSMMAT
         EJECT
DBLWRD   DC    D'0'                DOUBLE WORD WORK AREA
SVFSVA   DC    A(*-*)              ADDRESS OF FIRST S.A.
ATIOT    DC    A(*-*)
RSMLGTH  DC    F'0'
RSMADDR  DC    A(*-*)
SNADDR   DC    F'0'
SCASTB   DC    A(*-*,ASTBL,*-*)
LGASTB   DC    F'0'
DDLIST   DC    CL8'SYSPRINT'
DDSNAP   DC    CL8'SYSSNAP'
TRTAB    DC    CL16'0123456789ABCDEF'
TANKMX   DC    PL2'+0'
TANKNO   DC    PL2'+0'
TANKUP   DC    PL1'+1'
NPG      DC    PL3'+0'
NLN      DC    PL2'+0'
LPG      DC    PL3'+0'
NLS      DC    PL2'+0'
SWSEL    DC    AL1(SPFTE)
SVSMM    EQU   X'80'
SPFTE    EQU   X'40'
SESTE    EQU   X'20'
SWITCH   DC    XL1'0'
PFSNP    EQU   X'80'
PFDSP    EQU   X'08'
PFLFF    EQU   X'01'
STSEL    DS    0XL5
         DC    CL4'VSM ',AL1(SVSMM)
         DC    CL4'PFTE',AL1(SPFTE)
         DC    CL4'ESTE',AL1(SESTE)
NTSEL    EQU   (*-STSEL)/L'STSEL
         SPACE 1
         DC    AL1(TIT1L)
TIT1     DC    CL23'1 -- RSM : analysis of '
TIT1A    DC    CL4' ',CL4' -- '
TIT1B    DC    CL20' ',CL2'/ '
TIT1C    DC    CL8'  :  :  ',CL9' --- Page'
TIT1D    DC    CL6' ',CL3' --'
TIT1L    EQU   *-TIT1
         SPACE 1
         DC    AL1(LNTL)
LNT      DC    CL7' '
NPFTE    EQU   PFTEL/4
NESTE    EQU   ESTEL/4
LNTA     DC    (NPFTE)CL9' '       NPFTE = NESTE
LNTL     EQU   *-LNT
         SPACE 1
         DC    AL1(LNPL)
LNP      DC    CL5' '
LNPA     DC    CL2' ',CL2' '
LNPB     DC    CL34' ',CL1' '
LNPC     DC    CL43' '
LNPL     EQU   *-LNP
         SPACE 1
         DC    AL1(LNP1L)
LNP1     DC    CL5'0 ',CL39'Queue Type and Identification'
         DC    CL3' ',CL5'Count'
LNP1L    EQU   *-LNP1
         SPACE 1
         DC    AL1(LNP2L)
LNP2     DC    CL5'  '
         DC    39C'-',CL2' '
         DC    7C'-'
LNP2L    EQU   *-LNP2
         SPACE 1
         DC    AL1(LNUL)
LNU      DC    CL10' '
LNUA     DC    CL16' ',CL1' '
LNUB     DC    CL8' '
LNUC     DC    CL35' '
LNUL     EQU   *-LNU
         SPACE 1
         DC    AL1(LNU1L)
LNU1     DC    CL10'0 ',CL19'VSM location'
LNU1A    DC    CL4' ',CL2'''s'
LNU1L    EQU   *-LNU1
         SPACE 1
         DC    AL1(LNU2L)
LNU2     DC    CL10'  ',CL25'----------------  -------'
LNU2L    EQU   *-LNU2
         SPACE 1
MSGERR  WTO    '--- RSMANAL -                                          X
                              ',ROUTCDE=11,DESC=7,MF=L
MSGERRT  EQU   MSGERR+18,56
         EJECT
         LTORG
         EJECT
*------- HANDLE REQUEST(S)
         SPACE 1
GETPARM @ENTER ,
         L     R2,0(R1)            GET PARM= IF ANY
         LH    R1,0(R2)
         LTR   R1,R1
         BNP   NOPARM
         NI    SWSEL,255-SPFTE
         LA    R4,2(R2)
         LA    R3,1(R2,R1)
         LA    R2,1
SPNXT    LA    R5,DBLWRD
         MVC   DBLWRD(8),=CL8' '
         CLC   0(2,R4),=CL2'L='
         BNE   TSSNP
         LA    R6,DDLIST
         B     GTPRM
TSSNP    CLC   0(2,R4),=CL2'S='
         BNE   TSREQ
         LA    R6,DDSNAP
GTPRM    ALR   R4,R2
         BXLE  R4,R2,*+L'*+4
         B     ERRZ
         LA    R0,8+1
         BAS   R14,SCPRM
         MVC   0(8,R6),DBLWRD
         B     SPSKP
SCPRM    CLI   0(R4),C','
         BNE   *+L'*+12
         CLC   DBLWRD(4),=CL8' '
         BE    SPSKP
         BR    R14
         BCT   R0,*+L'*+4
         B     ERRZ
         MVC   0(1,R5),0(R4)
         LA    R5,1(R5)
         BXLE  R4,R2,SCPRM
         BR    R14
TSREQ    LA    R0,4+1
         BAS   R14,SCPRM
         LA    R0,NTSEL
         LA    R1,STSEL
         CLC   DBLWRD(4),0(R1)
         BE    STREQ
         LA    R1,L'STSEL(R1)
         BCT   R0,*-14
         B     ERRZ
STREQ    OC    SWSEL(1),4(R1)
SPSKP    BXLE  R4,R2,SPNXT
         CLI   SWSEL,0
         BE    ERRZ
NOPARM  EXTRACT ATIOT,'S',FIELDS=(TIOT)
         L     R1,ATIOT
         USING TIODSECT,R1
         XR    R0,R0
TSNDD    CLC   TIOELNGH(4),=F'0'
         BE    XGPARM
         CLC   TIOEDDNM(L'TIOEDDNM),DDSNAP
         BE    *+L'*+10
         IC    R0,TIOELNGH
         ALR   R1,R0
         B     TSNDD
         DROP  R1
         OI    SWITCH,PFSNP
XGPARM  @EXIT  ,
         SPACE 1
        LTORG
         EJECT
*------- DO VIRTUAL STORAGE MEMORY MAP
         SPACE 1
DOVSM   @ENTER ,
        $TSWXA 31,EXPAND=ONLY      ENTER 31-BIT MODE
         L     R1,CVTPTR           GET CVT ADDRESS
         USING CVTMAP,R1
         L     R2,CVTSMEXT         GET STORAGE MAP EXTENSION ADDRESS
         DROP  R1
         USING CVTVSTGX,R2
         MVC   MLPAS,CVTMLPAS      START MLPA ADDRESS
         MVC   FLPAS,CVTFLPAS      START FLPA ADDRESS
         MVC   FLPAE,CVTFLPAE      END FLPA ADDRESS
         MVC   PLPAS,CVTPLPAS      START PLPA ADDRESS
         MVC   PLPAE,CVTPLPAE      END PLPA ADDRESS
         MVC   EPLPS,CVTEPLPS      START EXT. PLPA ADDRESS
         MVC   EPLPE,CVTEPLPE      END EXT. PLPA ADDRESS
         MVC   EFLPS,CVTEFLPS      START EXT. FLPA ADDRESS
         MVC   EFLPE,CVTEFLPE      END EXT. FLPA ADDRESS
         MVC   EMLPE,CVTEMLPE      END EXT. MLPA ADDRESS
         MVC   NUCSTR,CVTRWNS      START NUCLEUS ADDRESS
         MVC   NUCEND,CVTERWNE     END EXT. NUCLEUS ADDRESS
         DROP  R2
         LA    R2,256              BACK UP TO
         SR    R1,R2                 CVT PREFIX
         USING CVTFIX,R1
         L     R2,CVTGDA           GET GDA ADDRESS
         DROP  R1
         USING GDA,R2
         MVC   CSALOW,GDACSA       LOWEST CSA AREA ADDRESS
         MVC   CSASIZE,GDACSASZ    CSA AREA SIZE
         MVC   CSAELOW,GDAECSA     LOWEST CSA AREA EXT. ADDRESS
         MVC   CSAESIZE,GDAECSAS   CSA AREA EXTENDED SIZE
         MVC   SQALOW,GDASQA       BEGIN SQA AREA ADDRESS
         MVC   SQASIZE,GDASQASZ    SQA AREA SIZE
         MVC   SQAELOW,GDAESQA     BEGIN SQA AREA EXT. ADDRESS
         MVC   SQAESIZE,GDAESQAS   SQA AREA EXTENDED SIZE
         MVC   PVTLOW,GDAPVT       BEGIN PRIVATE AREA ADDRESS
         MVC   PVTSIZE,GDAPVTSZ    PRIVATE AREA SIZE
         MVC   PVTELOW,GDAEPVT     BEGIN PRIVATE AREA EXT. ADDRESS
         MVC   PVTESIZE,GDAEPVTS   PRIVATE AREA EXTENDED SIZE
         MVC   VRLOW,GDAVR         ADDRESS OF GLOBAL V=R AREA
         MVC   VRSIZE,GDAVRSZ      SIZE OF GLOBAL V=R AREA
         DROP  R2
        $TSWXA 24,EXPAND=ONLY      BACK TO 24-BIT MODE
         MVC   ALEPVT,PVTELOW      FILL VSM TABLE
         MVC   ALECSA,CSAELOW
         MVC   ALEFLPA,EFLPS
         MVC   ALEPLPA,EPLPS
         MVC   ALESQA,SQAELOW
         MVC   ALNUC,NUCSTR
         MVC   ALSQA,SQALOW
         MVC   ALPLPA,PLPAS
         MVC   ALFLPA,MLPAS
         OC    ALFLPA,ALFLPA
         BNZ   *+L'*+6
         MVC   ALFLPA,FLPAS
         MVC   ALCSA,CSALOW
         L     R0,VRLOW
         A     R0,VRSIZE
         ST    R0,ALPVTV
         MVC   ALPVTR,VRLOW
         TM    SWSEL,SVSMM
         BZ    XDOVSM
        $GFDATE TIT1B,DBLWRD
         LTR   R15,R15
         BNZ   ERRG
         MVC   TIT1C(2),DBLWRD
         MVC   TIT1C+3(2),DBLWRD+2
         MVC   TIT1C+6(2),DBLWRD+4
         MVC   TIT1A(4),=CL4'VSM '
         ZAP   NLN,=PL2'+99'       FORCE NEW PAGE FOR VSM MAP LIST
         LA    R4,10               SET R4 TO 10
         L     R5,=A(KB*KB)        LOAD 1M INTO R5
         MVC   FIVEBYTE,PVTELOW    LOWEST PVT AREA EXT. ADDRESS
         UNPK  TENBYTE,FIVEBYTE
         TR    TENBYTE+1(8),TRTAB-C'0'
         MVC   #EPVTL,TENBYTE+1
         L     R3,PVTELOW          LOWEST PVT AREA EXT. ADDRESS
         A     R3,PVTESIZE         SIZE OF PRIVATE AREA EXTENDED
         S     R3,=F'1'            HIGHEST PVT AREA EXT. ADDRESS
         STCM  R3,B'1111',FIVEBYTE
         UNPK  TENBYTE,FIVEBYTE
         TR    TENBYTE+1(8),TRTAB-C'0'
         MVC   #EPVTH,TENBYTE+1
         XR    R2,R2
         L     R3,PVTESIZE         SIZE OF PRIVATE AREA EXTENDED
         LR    R0,R3               SAVE FOR COMPUTATION IN K
         MR    R2,R4               MULTIPLY BY 10
         DR    R2,R5               DIVIDE BY 1M
         CVD   R3,DBLWRD
         MVC   #EPVTSM,EDIT1
         ED    #EPVTSM,DBLWRD+5
         SRA   R0,10               SIZE IN K
         CVD   R0,DBLWRD
         MVC   #EPVTSK,EDIT2
         ED    #EPVTSK,DBLWRD+4
         MVC   FIVEBYTE,CSAELOW    LOWEST CSA AREA EXT. ADDRESS
         UNPK  TENBYTE,FIVEBYTE
         TR    TENBYTE+1(8),TRTAB-C'0'
         MVC   #ECSAL,TENBYTE+1
         L     R3,CSAELOW          LOWEST CSA AREA EXT. ADDRESS
         A     R3,CSAESIZE         SIZE OF CSA AREA EXTENDED
         S     R3,=F'1'            HIGHEST CSA AREA EXT. ADDRESS
         STCM  R3,B'1111',FIVEBYTE
         UNPK  TENBYTE,FIVEBYTE
         TR    TENBYTE+1(8),TRTAB-C'0'
         MVC   #ECSAH,TENBYTE+1
         XR    R2,R2
         L     R3,CSAESIZE         SIZE OF CSA AREA EXTENDED
         LR    R0,R3               SAVE FOR COMPUTATION IN K
         MR    R2,R4               MULTIPLY BY 10
         DR    R2,R5               DIVIDE BY 1M
         CVD   R3,DBLWRD
         MVC   #ECSASM,EDIT1
         ED    #ECSASM,DBLWRD+5
         SRA   R0,10               SIZE IN K
         CVD   R0,DBLWRD
         MVC   #ECSASK,EDIT2
         ED    #ECSASK,DBLWRD+4
         MVC   FIVEBYTE,EFLPS      START FLPA EXT. ADDRESS
         UNPK  TENBYTE,FIVEBYTE
         TR    TENBYTE+1(8),TRTAB-C'0'
         MVC   #EFLPAL,TENBYTE+1
         L     R3,EMLPE            END MLPA EXT. ADDRESS
         LTR   R3,R3               MLPA EXT. DEFINED ?
         BZ    *+L'*+16            NO
         MVC   #TXE(14),=CL14'MLPA+FLPA Ext.' SET TEXT
         MVC   TTXE(14),=CL14'MLPA+FLPA Ext.'
         B     *+L'*+16
         L     R3,EFLPE            END FLPA EXT. ADDRESS
         MVC   #TXE(14),=CL14'     FLPA Ext.' SET TEXT
         MVC   TTXE(14),=CL14'FLPA Ext.'
         STCM  R3,B'1111',FIVEBYTE
         UNPK  TENBYTE,FIVEBYTE
         TR    TENBYTE+1(8),TRTAB-C'0'
         MVC   #EFLPAH,TENBYTE+1
         L     R3,EMLPE            END MLPA EXT. ADDRESS
         LTR   R3,R3               MLPA EXT. DEFINED ?
         BNZ   *+L'*+4             YES
         L     R3,EFLPE            END FLPA EXT. ADDRESS
         A     R3,=F'1'
         S     R3,EFLPS            COMPUTE SIZE
         LR    R0,R3               SAVE FOR COMPUTATION IN K
         MR    R2,R4               MULTIPLY BY 10
         DR    R2,R5               DIVIDE BY 1M
         CVD   R3,DBLWRD
         MVC   #EFLPASM,EDIT1
         ED    #EFLPASM,DBLWRD+5
         SRA   R0,10               SIZE IN K
         CVD   R0,DBLWRD
         MVC   #EFLPASK,EDIT2
         ED    #EFLPASK,DBLWRD+4
         MVC   FIVEBYTE,EPLPS      START PLPA EXT. ADDRESS
         UNPK  TENBYTE,FIVEBYTE
         TR    TENBYTE+1(8),TRTAB-C'0'
         MVC   #EPLPAL,TENBYTE+1
         MVC   FIVEBYTE,EPLPE      END PLPA EXT. ADDRESS
         UNPK  TENBYTE,FIVEBYTE
         TR    TENBYTE+1(8),TRTAB-C'0'
         MVC   #EPLPAH,TENBYTE+1
         L     R3,EPLPE            COMPUTE PLPA EXT. SIZE
         A     R3,=F'1'
         S     R3,EPLPS
         LR    R0,R3               SAVE FOR COMPUTATION IN K
         MR    R2,R4               MULTIPLY BY 10
         DR    R2,R5               DIVIDE BY 1M
         CVD   R3,DBLWRD
         MVC   #EPLPASM,EDIT1
         ED    #EPLPASM,DBLWRD+5
         SRA   R0,10               SIZE IN K
         CVD   R0,DBLWRD
         MVC   #EPLPASK,EDIT2
         ED    #EPLPASK,DBLWRD+4
         MVC   FIVEBYTE,SQAELOW    LOWEST SQA AREA EXT. ADDRESS
         UNPK  TENBYTE,FIVEBYTE
         TR    TENBYTE+1(8),TRTAB-C'0'
         MVC   #ESQAL,TENBYTE+1
         L     R3,SQAELOW          LOWEST SQA AREA EXT. ADDRESS
         A     R3,SQAESIZE         SIZE OF SQA AREA EXTENDED
         S     R3,=F'1'            HIGHEST SQA AREA EXT. ADDRESS
         STCM  R3,B'1111',FIVEBYTE
         UNPK  TENBYTE,FIVEBYTE
         TR    TENBYTE+1(8),TRTAB-C'0'
         MVC   #ESQAH,TENBYTE+1
         XR    R2,R2
         L     R3,SQAESIZE         SIZE OF SQA AREA EXTENDED
         LR    R0,R3               SAVE FOR COMPUTATION IN K
         MR    R2,R4               MULTIPLY BY 10
         DR    R2,R5               DIVIDE BY 1M
         CVD   R3,DBLWRD
         MVC   #ESQASM,EDIT1
         ED    #ESQASM,DBLWRD+5
         SRA   R0,10               SIZE IN K
         CVD   R0,DBLWRD
         MVC   #ESQASK,EDIT2
         ED    #ESQASK,DBLWRD+4
         MVC   FIVEBYTE,NUCEND     HIGHEST EXT. NUCLEUS ADDRESS
         UNPK  TENBYTE,FIVEBYTE
         TR    TENBYTE+1(8),TRTAB-C'0'
         MVC   #ENUCH,TENBYTE+1
         XR    R2,R2
         L     R3,NUCEND           HIGHEST EXT. NUCLEUS ADDRESS
         A     R3,=F'1'
         S     R3,=A(16*KB*KB)     COMPUTE EXT. NUCLEUS SIZE
         LR    R0,R3               SAVE FOR COMPUTATION IN K
         MR    R2,R4               MULTIPLY BY 10
         DR    R2,R5               DIVIDE BY 1M
         CVD   R3,DBLWRD
         MVC   #ENUCSM,EDIT1
         ED    #ENUCSM,DBLWRD+5
         SRA   R0,10               SIZE IN K
         CVD   R0,DBLWRD
         MVC   #ENUCSK,EDIT2
         ED    #ENUCSK,DBLWRD+4
         MVC   FIVEBYTE,NUCSTR     LOWEST NUCLEUS ADDRESS
         UNPK  TENBYTE,FIVEBYTE
         TR    TENBYTE+1(8),TRTAB-C'0'
         MVC   #NUCL,TENBYTE+1
         XR    R2,R2
         L     R3,=A(16*KB*KB)     HIGHEST NUCLEUS ADDRESS + 1
         S     R3,NUCSTR           COMPUTE NUCLEUS SIZE
         LR    R0,R3               SAVE FOR COMPUTATION IN K
         MR    R2,R4               MULTIPLY BY 10
         DR    R2,R5               DIVIDE BY 1M
         CVD   R3,DBLWRD
         MVC   #NUCSM,EDIT1
         ED    #NUCSM,DBLWRD+5
         SRA   R0,10               SIZE IN K
         CVD   R0,DBLWRD
         MVC   #NUCSK,EDIT2
         ED    #NUCSK,DBLWRD+4
         MVC   FIVEBYTE,SQALOW     LOWEST SQA AREA ADDRESS
         UNPK  TENBYTE,FIVEBYTE
         TR    TENBYTE+1(8),TRTAB-C'0'
         MVC   #SQAL,TENBYTE+1
         L     R3,SQALOW           LOWEST SQA AREA ADDRESS
         A     R3,SQASIZE          SIZE OF SQA AREA
         S     R3,=F'1'            HIGHEST SQA AREA ADDRESS
         STCM  R3,B'1111',FIVEBYTE
         UNPK  TENBYTE,FIVEBYTE
         TR    TENBYTE+1(8),TRTAB-C'0'
         MVC   #SQAH,TENBYTE+1
         XR    R2,R2
         L     R3,SQASIZE          SIZE OF SQA AREA
         LR    R0,R3               SAVE FOR COMPUTATION IN K
         MR    R2,R4               MULTIPLY BY 10
         DR    R2,R5               DIVIDE BY 1M
         CVD   R3,DBLWRD
         MVC   #SQASM,EDIT1
         ED    #SQASM,DBLWRD+5
         SRA   R0,10               SIZE IN K
         CVD   R0,DBLWRD
         MVC   #SQASK,EDIT2
         ED    #SQASK,DBLWRD+4
         MVC   FIVEBYTE,PLPAS      START PLPA ADDRESS
         UNPK  TENBYTE,FIVEBYTE
         TR    TENBYTE+1(8),TRTAB-C'0'
         MVC   #PLPAL,TENBYTE+1
         MVC   FIVEBYTE,PLPAE      END PLPA ADDRESS
         UNPK  TENBYTE,FIVEBYTE
         TR    TENBYTE+1(8),TRTAB-C'0'
         MVC   #PLPAH,TENBYTE+1
         L     R3,PLPAE            COMPUTE PLPA SIZE
         A     R3,=F'1'
         S     R3,PLPAS
         LR    R0,R3               SAVE FOR COMPUTATION IN K
         MR    R2,R4               MULTIPLY BY 10
         DR    R2,R5               DIVIDE BY 1M
         CVD   R3,DBLWRD
         MVC   #PLPASM,EDIT1
         ED    #PLPASM,DBLWRD+5
         SRA   R0,10               SIZE IN K
         CVD   R0,DBLWRD
         MVC   #PLPASK,EDIT2
         ED    #PLPASK,DBLWRD+4
         L     R3,MLPAS            START MLPA ADDRESS
         LTR   R3,R3               MLPA DEFINED ?
         BZ    *+L'*+16            NO
         MVC   #TX(9),=CL9'FLPA+MLPA' SET TEXT
         MVC   TTX(9),=CL9'FLPA+MLPA'
         B     *+L'*+16
         L     R3,FLPAS            START FLPA ADDRESS
         MVC   #TX(9),=CL9'     FLPA' SET TEXT
         MVC   TTX(9),=CL9'FLPA'
         STCM  R3,B'1111',FIVEBYTE
         UNPK  TENBYTE,FIVEBYTE
         TR    TENBYTE+1(8),TRTAB-C'0'
         MVC   #FLPAL,TENBYTE+1
         MVC   FIVEBYTE,FLPAE      END FLPA ADDRESS
         UNPK  TENBYTE,FIVEBYTE
         TR    TENBYTE+1(8),TRTAB-C'0'
         MVC   #FLPAH,TENBYTE+1
         L     R3,FLPAE            END FLPA ADDRESS
         A     R3,=F'1'
         OC    MLPAS,MLPAS         MLPA DEFINED ?
         BZ    *+L'*+8             NO
         S     R3,MLPAS            COMPUTE FLPA+MLPA SIZE
         B     *+L'*+4             NO
         S     R3,FLPAS            COMPUTE FLPA SIZE
         LR    R0,R3               SAVE FOR COMPUTATION IN K
         MR    R2,R4               MULTIPLY BY 10
         DR    R2,R5               DIVIDE BY 1M
         CVD   R3,DBLWRD
         MVC   #FLPASM,EDIT1
         ED    #FLPASM,DBLWRD+5
         SRA   R0,10               SIZE IN K
         CVD   R0,DBLWRD
         MVC   #FLPASK,EDIT2
         ED    #FLPASK,DBLWRD+4
         MVC   FIVEBYTE,CSALOW     LOWEST CSA AREA ADDRESS
         UNPK  TENBYTE,FIVEBYTE
         TR    TENBYTE+1(8),TRTAB-C'0'
         MVC   #CSAL,TENBYTE+1
         L     R3,CSALOW           LOWEST CSA AREA ADDRESS
         A     R3,CSASIZE          SIZE OF CSA AREA
         S     R3,=F'1'            HIGHEST CSA AREA ADDRESS
         STCM  R3,B'1111',FIVEBYTE
         UNPK  TENBYTE,FIVEBYTE
         TR    TENBYTE+1(8),TRTAB-C'0'
         MVC   #CSAH,TENBYTE+1
         XR    R2,R2
         L     R3,CSASIZE          SIZE OF CSA AREA
         LR    R0,R3               SAVE FOR COMPUTATION IN K