         MACRO
&NAME    JRPDMAC
         TITLE 'DYNAMIC - PRINTER SUBTASK AREA'
***********************************************************************
*                                                                     *
*             MACRO NAME = JRPDMAC                                    *
*                                                                     *
*             DESCRIPTIVE NAME =  DYNAMIC AREA MAPPING MACRO          *
*                FOR JRP     328X PRINTER"S                           *
*                                                                     *
*             AUTHOR = MIKE SCHORTMAN -                               *
*                                                                     *
*             COPYRIGHT = 9/8/82                                      *
*                                                                     *
*              MODIFIED =                                             *
*                                                                     *
*             STATUS =                                                *
*                                                                     *
*                                                                     *
*             FUNCTION =                                              *
*                                                                     *
*                                                                     *
*                                                                     *
*                OPERATION =                                          *
*                                                                     *
*                                                                     *
*                                                                     *
*                                                                     *
*              NOTES =                                                *
*                                                                     *
*                 DEPENDENCIES = MUST STAY IN SYNC WITH JRPSMAC       *
*                                                                     *
*                                                                     *
*                                                                     *
*                 REGISTER CONVENTIONS = STANDARD CONVENTIONS.        *
*                                                                     *
*                PROCESSOR = MACRO                                    *
*                                                                     *
*                LINKAGE =                                            *
*                   EXPANDED IN EACH JRP MODULE.                      *
*                                                                     *
*             INPUT = NONE.                                           *
*                                                                     *
*             OUTPUT = NONE                                           *
*                                                                     *
*             EXIT - NORMAL = MEND.                                   *
*                                                                     *
*             CHANGE ACTIVITY = NONE                                  *
*                                                                     *
*             MESSAGES =                                              *
*                                                                     *
*                THIS PROGRAM IS THE PROPERTY OF MIKE SCHORTMAN,      *
*                CONN. MUTUAL LIFE INS. CO.                           *
*                                                                     *
*                                                                     *
***********************************************************************
J1DWA    DSECT
         DS    0D
J1DBFR   DC    C'XXXXXXXX XXXXXXXX BEGINNING ON RXXXXXXX(XXXXXXXX)'
J1DBFNME EQU   J1DBFR,8
J1DBFNUM EQU   J1DBFR+9,8
J1DBFCL  EQU   J1DBFR+L'J1DBFR-18,8
J1DCMWT1 WTO   'JRPI100 XXXXXXX',MCSFLAG=(REG0),MF=L
J1DCMW0  EQU   J1DCMWT1+4,16
J1DCMW1  EQU   J1DCMWT1+4+9,7
J1DOPER  WTO   'JRPX000 ....X....X....X....X....X....X....X....X....X..X
               ....X',MF=L,ROUTCDE=(8)
J1DOPERM EQU   J1DOPER+4+3,4
J1DOPER1 EQU   J1DOPER+4+8,50
J1DWERR  WTO   'JRPE100 RXXXXXXX-.....X....X....X....X....,R15=999',   X
               MF=L
J1DWERRM EQU   J1DWERR+4+3,4
J1DWERRP EQU   J1DWERR+4+8,8
J1DWERR1 EQU   J1DWERR+4+8+5,25      DYNAMIC MESSAGE PORTION
J1DWERR2 EQU   J1DWERR+4+8+9+30,3      DECIMAL R15 RETURN CODE
J1DFLSMS DC    C'RXXXXXXX(XXXXXXXX) OUTPUT TERMINATED BY XXXXXXXX   '
J1DBYWHO EQU   J1DFLSMS+L'J1DFLSMS-3-8,8
J1DWHY   EQU   J1DFLSMS+L'J1DFLSMS-3-8-4-10,10
J1DBEG   DC    0CL91' ',CL91'*'
J1DBEGJT EQU   J1DBEG+5,32
J1DBEGJN EQU   J1DBEG+38,8
J1DBEGJ  EQU   J1DBEG+47,8
J1DCMT2  DS    0F                  CURRENT OPTIONS MESSAGE
         DC    AL2(J1DCMT2E-*)     L'TXT+L'ROUT+L'DESC
         DC    X'4000'             MCSFLAG=(REG0)
J1DTPUT  EQU   *
         DC    C'JRPI101 '
J1DHPRT  DC    CL8'RXXXXXXX'
         DC    C' LU='
J1DLUID  DC    C'        '         DEFAULT LUID
         DC    CL1' '
J1DHSTAT DC    CL10'INACTIVE  '    PRINTER STATUS
J1DHNME  DC    CL18'                  ' NAME AND NUMBER
J1DPRN1  EQU   J1DHNME+8,1
J1DHJNM  EQU   J1DHNME+9,8
J1DPRN2  EQU   J1DHNME+17,1
J1DQTPUT EQU   *
         DC    C',F='
J1DHFORM DC    C'    '             CURRENT FORM
         DC    C',R='
J1DHDEST DC    CL8'LOCAL   '       CURRENT DESTINATION
         DC    C',S='
J1DSEP   DC    CL1'Y'              DEFAULT PAGE SEPERATORS
         DC    C',LPP='
J1DLEN2  DC    C'068'              DEFAULT PAGE SIZE
         DC    C',MLIN='
J1DMLNE2 DC    C'9999'             DEFAULT PAGE WIDTH
         DC    C',C='
J1DHCLAS DC    CL8'        '       CURRENT CLASS(ES)
         DC    C',SCS='
J1DHSCS  DC    CL1'Y'              SCS OPTION Y/N
         DC    C',LGMD='
J1DLGMD  DC    CL8'        '       CURRENT LOGMODE
         DC    C',RCD='
J1DBROK1 DC    CL3'00'
         DC    C',FB2='
J1DBROK2 DC    CL3'00'
         DC    C',SENSE='
J1DBROK3 DC    CL9'00000000'
J1DCMT2E EQU   *                   NO ROUT/DESC W/ REG0
J1DTPUTL EQU   *-J1DTPUT
J1DLEN   DC    F'68'               PAGE SIZE
J1DMLNE  DC    F'9999'             PAGE WIDTH
         DS    0F
J1DTWT   DC    F'0'
***********************************************************************
*  EVERYTHING FROM HERE ON IS SET TO LOW VALUES AT INIT TIME          *
***********************************************************************
         DS    0F
J1DST3   DS    F
J1DST8   DS    F
J1DPSOS  DS    F
J1DJECB  DS    A                   HASP COMM ECB
J1DCURPO DS    F                   CURRENT LINE NUMBER
J1DILOC  DS    F                   OUTPUT RECORD TEXT LOC.
J1DISIZ  DS    F                   OUTPUT RECORD LENGTH  .
J1DDCB   DS    F                   DCB ADDRESS STORE ADDRESS
J1DACB   DS    F                   ACB ADDRESS STORE ADDRESS
J1DTCB   DS    F                   TCB ADDRESS STORE ADDRESS
J1DRPL   DS    F                   RPL ADDRESS STORE
J1DNIB   DS    F                   NIB ADDRESS STORE
J1DWRET  DS    F                   RETURN SAVE AREA
J1DFMRET DS    F                   RETURN SAVE AREA
J1DOPENX DS    F                   LIST FORM OF OPEN
J1DBFPTR DS    F                   CURR. AVAL. 328X BUFFER POS.
J1DRETRY DS    F                   RETRY LIMITER
J1DTIMER DS    F                   JESSCAN TIMER(IN SECONDS)
J1DSAV01 DS    2F                  SAVE LINE/LEN DURING ASCII CONV.
J1DWORK  DS    D                   WORK AREA
J1DJOBN  DS    CL8                 CURR. JOBNAME
J1DJOBI  DS    CL8                 CURR. JOB ID.
J1DDNM   DS    CL8                 CURR. JOB ID.
J1DDSN   DS    CL44                CURR. JOB ID.
J1DMSGLN DS    F
J1DMSGTX DS    F
J1DCONID DS    X                   MCS ID OF MODIFY ISSUER
J1DRETLM DS    H                   RETRY COUNTER(IO ERR ON PRINTER)
J1DFLAG1 DS    X                   FLAG BITE 1
J1DFLAG2 DS    X                   FLAG BITE 2
J1DCONCH DS    C                   CARRIAGE CONTROL
         DS    0F                  SVC 99 BUILD AREA
J1DS99   DS    XL200               MUST BE LARGER THAN 'DYN' EQUATE
         DS    0F                  ALIGN
J1DSSOB  DS    (160)X
J1DCLRE  EQU   *                   END OF DYNAMIC AREA
J1DSASIZ EQU   *-J1DWA             SIZE OF DYNAMIC AREA
J1DNCLSF EQU   X'01'               NORMAL CLOSE FLAG
J1DICLSF EQU   X'02'               IMMEDIATE CLOSE FLAG
J1PGLBF  EQU   X'04'               PARSE GLOBAL REQUEST FLAG
J1PCNTF  EQU   X'10'               CONTINUATION CARD FLAG
J1PINVF  EQU   X'40'               INVALID ON INITIALIZATION FLAG
J1PINITF EQU   X'80'               INITIALIZATION FLAG
J1DIOERR EQU   X'01'               I/O ERROR FLAG
J1DSTOP  EQU   X'02'               STOP IMMED FLAG
J1DRTLM  EQU   X'04'               RETRY LINIT FLAG
J1DNEWDS EQU   X'08'               TOP OF PAGE FLAG
J1DALC   EQU   X'10'               ALLOCATE DEALLOCATE
J1DEOF   EQU   X'20'               ENF OF FILE FLAG
J1DBEGIN EQU   X'40'               DEVICE OPEN FLAG
J1DKEEP  EQU   X'80'               KEEP CURRENT DATA-SET
J1DTRUNC EQU   X'01'               PRINTER BUFFER AS IS
J1DHDR   EQU   X'02'               HEADER ON/OFF FLAG
J1DFLUSH EQU   X'04'               CANCEL
J1DPURGE EQU   X'08'               DRAINED
J1DSTOPA EQU   X'10'               STOP AFTER CURRENT ACTIVITY
J1DSPALL EQU   X'20'               TAKE STATISTICS DISPLAY
         MEND
