         MACRO
&NAME    JRPRTRN &OP=,&SAVE=,&LV=0,&MASK=NO
.* TERME WILL RESTORE REGISTERS, UNCHAIN SAVE AREAS, RELEASE DYNAMIC
.* STORAGE OBTAINED BY THE PRIME MACRO, RESET THE PGM MASK AND IN
.* GENERAL PERFORM THE NECESSARY EXIT LINKAGE.
.* TERME WILL FREE THE USERS SAVE AREA PLUS THE NUMBER OF BYTES
.* SPECIFIED BY THE LV OPERAND UNLESS THE USER IMPLIES THAT THE SAVE
.* AREA WAS NOT OBTAINED VIA A GETMAIN.  THE USER IMPLIES THIS BY
.* SPECIFYING SAVE= SOME VALUE OR SYMBOL.
.* IF THE USER SPECIFIED SAVE=NONE IN THE PRIME MACRO, HE SHOULD DO
.*  THE SAME FOR TERME.
.* THE USER MAY CHOOSE TO FOLLOW THE TERME MACRO WITH THE XCTL MACRO
.* RATHER THAN BRANCH ON 14.  THE USER ACCOMPLISHES THIS BY CODING
.* OP=XCTL
         AIF   ('&NAME' EQ '').F
&NAME    DS    0H
.F       ANOP
         AIF ('&SAVE' EQ 'NONE').C
         L     13,4(0,13)              GET PTR TO USERS AREA
         STM   0,1,20(13)               TEMPORARY SAVE OF R0 AND R1
         AIF   ('&SAVE' NE '').C
         AIF   ('&LV'(1,1) EQ '(').E
         AIF   ('&LV' EQ '0').CONT
         AIF   ('&LV' GT '4023').ERR
         LA    0,&LV.+72(0,0)           PARAMETER FOR FREEMAIN
         AGO   .CONT
.E       ANOP
         AIF   ('&LV' EQ '(0)').CONT
         LA    0,72(&LV(1).,0)          PARAMETER FOR FREEMAIN
.CONT    ANOP
         L     1,8(0,13)                GET SAVE AREA ADDRESS
         LA    1,0(0,1)                 INDICATE FREEMAIN
         AIF   ('&LV' NE '0').CONTC
         L     0,0(0,1)                 LENGTH IS IN 1ST WORD OF AREA
.CONTC   ANOP
         STCM  15,7,17(13)              SAVE RETURN CODE 11-25-78
         SVC   10                       ISSUE SVC 10
         ICM   15,7,17(13)              RESTORE RETURN CODE 11-25-78
.C       ANOP
         AIF   ('&MASK' EQ 'NO').NOMASK
         L     14,16(0,13)              RESET
         SPM   14                       PGM MASK
.NOMASK  ANOP
         L     14,12(0,13)              RESTORE
         LM    0,12,20(13)              REGISTERS
         XC    8(4,13),8(13)            DEQUEUE SAVE AREA
         AIF   ('&OP' EQ 'XCTL').D
         BR    14                       RETURN TO CALLER
         MEXIT
.D       ANOP
         BALR  15,0                     ESTABLISH ADDRESSABILITY
         USING *,15
         MEXIT
.ERR     MNOTE 'LV GT 4023, LV REQUEST NOT HONORED'
         LA    0,72(0,0)                PARAMETER FOR FREEMAIN
         AGO   .CONT
         MEND
