CNCLPG   TITLE 'Make an address space cancelable or non-canclable. '
*  -----------------------------------------------------------------  *
*                                                                     *
*    Function:   To make an address space Cancelable, Non-cancelable, *
*                Forcible, or Non-forcible.                           *
*                                                                     *
*                This is determined by bit settings in the address    *
*                space's CSCB.                                        *
*                                                                     *
*    Syntax:     TSO Command:                                         *
*                                                                     *
*        CNCLPG |jobid ÝASID(hhhh)¨ |CNCL|NCNC|FORC|NFRC              *
*               |ASID(hhhh)         |CNCL|NCNC|FORC|NFRC              *
*               |                   |CSCB or DISP                     *
*               |-  (displays the entire CSCB chain)                  *
*               |?  (displays help)                                   *
*                                                                     *
*    Date:       April 15, 2010                                       *
*                                                                     *
*    Author:     Sam Golob                                            *
*                                                                     *
*    Technical Detail:  PUTLINE interface for TSO Output.             *
*                                                                     *
*                                                                     *
*    Changes:  1.  SWAP, NSWP support dropped from this program.      *
*                                                                     *
*              2.  Messages and DISP improved, to just show matching  *
*                   CSCB chain entries, instead of all of them.       *
*                                                                     *
*  -----------------------------------------------------------------  *
*  This macro lets you display hex values in a report.
         MACRO
&NAME    HEX   &TO,&LEN,&FROM
&NAME    STM   R15,R1,HEXSAVE           Save work registers.
         LA    R1,&FROM                 Load from address.
         LA    R0,&LEN                  Load length of hex number.
         LA    R15,&TO                  Load to address.
         BAL   R9,HEX                   BAL to routine.
         LM    R15,R1,HEXSAVE           Restore work registers.
         MEND
*  -----------------------------------------------------------------  *
*  --           Create PUTLINE environment.                       --  *
*  -----------------------------------------------------------------  *
         MACRO
&LABEL   APUT  &MSG,                    @MESSAGE TEXT                  &
               &LEN,                    @LENGTH OF MESSAGE             &
               &RSA=,                   OPTIONAL 2 WORD SAVE AREA      &
               &EPA=                    EPUTL EPA
.*
.* * * * * * * * * * * * * * * * * * * * * * * * * * * * * * * * * * *
.*
.*  --> E@PUT
.*
.*  THIS MACRO SETS UP A PARAMETERS AND INVOKES THE EPUTL ROUTINE.
.*
.*
.*  ARGUMENTS: -----------------------------------------------------
.*
.*      &MSG : ADDRESS OF MESSAGE TEXT OR A LITERAL
.*
.*      &LEN : LENGTH OF MESSAGE TEXT (DEFAULT IS L'&MSG)
.*
.*      &RSA :(OPTIONAL) 1 WORD SAVE AREA TO PRESERVE R14 FOR TPUT
.*            COMPATIBILITY.
.*
.*      &EPA :(OPTIONAL) EPA FOR EPUTL ROUTINE
.*
.*
.*   EXAMPLES: -----------------------------------------------------
.*
.*      1) APUT  'LITERAL'
.*
.*      2) APUT  (R3),80
.*
.*      3) APUT  LABEL
.*
.*      4) APUT  LABEL,40
.*
.*
.* * * * * * * * * * * * * * * * * * * * * * * * * * * * * * * * * * *
.*
.*
.*  LOCAL SET SYMBOLS
.*
         LCLC  &SMA                     MESSAGE ADDRESS (REG)
         LCLC  &SML                     MESSAGE LENGTH (REG)
         LCLC  &SEP                     EPA (REGISTER)
.*
         LCLC  &L1,&L2,&L3              LOCAL LABELS
.*
&L1      SETC  'EP'.'&SYSNDX'.'L1'      LOCAL LABELS
&L2      SETC  'EP'.'&SYSNDX'.'L2'      LOCAL LABELS
&L3      SETC  'EP'.'&SYSNDX'.'L3'      LOCAL LABELS
.*
.*
.*  MESSAGE ADDRESS
.*
         AIF   (T'&LABEL EQ 'O').A0500                      *HMD 11/86*
.*                                                          *HMD 11/86*
&LABEL   DS    0H                                           *HMD 11/86*
.*                                                          *HMD 11/86*
.A0500   ANOP                                               *HMD 11/86*
         AIF   ('&MSG' NE '').A2000
         MNOTE 8,'''&MSG='' MISSING / REQUIRED'
         MEXIT
.*
.A2000   ANOP
         AIF   ('&MSG'(1,1) NE '(').A2400
&SMA     SETC  '&MSG'(2,K'&MSG-2)
         LR    R1,&SMA                  @MESSAGE TEXT
         AGO   .A2600
.*
.A2400   ANOP
         AIF   ('&MSG'(1,1) NE '''').A2500
         B     &L3                      BRANCH AROUND MESSAGE
&L2      DC    C&MSG
&L3      DS    0H
         LA    R1,&L2                   @MESSAGE
         AGO   .A2600
.*
.A2500   ANOP
         LA    R1,&MSG                  @MESSAGE TEXT
.A2600   ANOP
.*
.*  MESSAGE LENGTH
.*
         AIF   ('&LEN' NE '').A3000
         AIF   ('&MSG'(1,1) NE '''').A2800
         LA    R0,L'&L2                 MESSAGE LENGTH
         AGO   .A3600
.*
.A2800   ANOP
         AIF   ('&MSG'(1,1) EQ '(').A2900
         LA    R0,L'&MSG                MESSAGE LENGTH
         AGO   .A3600
.*
.A2900   ANOP
         MNOTE 8,'''LEN'' MISSING / REQUIRED'
         MEXIT
.*
.A3000   ANOP
         AIF   ('&LEN'(1,1) NE '(').A3400
&SML     SETC  '&LEN'(2,K'&LEN-2)
         LR    R0,&SML                  MESSAGE LENGTH
         AGO   .A3600
.*
.A3400   ANOP
         LA    R0,&LEN                  MESSAGE LENGTH
.A3600   ANOP
.*
.*  RSA
.*
         AIF   ('&RSA' EQ '').A4900
         ST    R14,&RSA                 SAVE REGS 14
.A4900   ANOP
.*
.*  ENTRY POINT
.*
         AIF   ('&EPA' NE '').A5000
         L     R15,=V(EPUTL)            EPA
         AGO   .A5600
.*
.A5000   AIF   ('&EPA'(1,1) NE '(').A5400
&SEP     SETC  '&EPA'(2,K'&EPA-2)
         LR    R15,&SEP                 EPA
         AGO   .A5600
.*
.A5400   ANOP
         L     R15,&EPA                 EPA
.*
.A5600   ANOP
.*
.*  CALL LINKAGE
.*
.ACALL   BALR  R14,R15                  CALL PUTLINE ROUTINE
.*
         AIF   ('&RSA' EQ '').A6900
         L     R14,&RSA                 RESTORE R14
.A6900   ANOP
.*
.AMEND   MEND
* ------------------------------------------------------------------- *
* --       End of Internal Macros......                            -- *
* ------------------------------------------------------------------- *
         SPACE 3
CNCLPG   CSECT
CNCLPG   AMODE 31
CNCLPG   RMODE ANY
         YREGS
         USING CNCLPG,R15          (Establish temporary base).
         B     BEGIN               Skip over eyecatcher.
EYEC0    DC    AL1(EYECL)          Exclusive length of header.
EYEC     DC    C' CNCLPG - &SYSDATE - &SYSTIME -'
         DC    C'     --------------------------------    '
         DC    C' VER 1.0.0   '
         DC    C'                   '
EYECL    EQU   *-EYEC
         DROP  R15                 (DROP TEMPORARY BASE).
BEGIN    STM   R14,R12,12(R13)     Save caller's registers
         LR    R6,R1               Preserve CPPL pointer.
         LR    R12,R15             Copy base.
         USING CNCLPG,R12,R11,R10  (Tell assembler).
         LA    R11,4095(,R12)      Load bases.
         LA    R11,1(,R11)
         LA    R10,4095(,R11)
         LA    R10,1(,R10)
         LR    R14,R13             Copy caller's save area pointer.
         LA    R13,SAVE            Point to my save area.
         ST    R13,8(,R14)         Chain ...
         ST    R14,SAVE+4          ... Save areas.
         SPACE 1
AUTHTEST DS    0H
         ST    R1,SAVER1A
         L     R1,16               CVTPTR
         L     R1,0(,R1)           TCB WORDS
         L     R1,4(,R1)           CURRENT TCB
         L     R1,180(,R1)         TCBJSCB
         L     R1,264(,R1)         JSCBPSCB
         LA    R1,0(,R1)           CLEAR HI ORDER BYTE
         LTR   R1,R1               IS THERE A PSCB
         BZ    NOTFOUND            NO, ISSUE COMMAND-NOT-FOUND MSG
         TM    X'10'(R1),X'80'     PSCB OPER AUTHORITY?
         BZ    NOTFOUND            NO, ISSUE COMMAND-NOT-FOUND MSG
         L     R1,SAVER1A
INITCON  DS    0H                  Initialize some constants.
         MVI   FLAG1,X'00'
         MVI   FLAG2,X'00'
         MVI   ONSWIT,X'00'
         MVI   ERRASID,X'00'
         MVI   CANCINDC,X'00'
         MVI   OUTPUT-1,X'40'
         MVC   OUTPUT,OUTPUT-1
         MVI   NEWCHACT,X'00'
PRTITLE  DS    0H                  Print program title.
         APUT  MESSAGET,L'MESSAGET
         APUT  MESSAGEU,L'MESSAGEU
CONT0    DS    0H                  Look at command's parameters.
         LTR   R6,R6               Any CPPL?
         BZ    EOJ8                No.  Get out.
         L     R1,0(,R6)           Pt to cmd buffer. (R6 reused later)
         LTR   R1,R1               Any CMD buffer?
         BZ    EOJ8                Get out if none.
         LH    R3,0(,R1)           Load length.
         CH    R3,=H'4'            Anything?
         BNH   EOJ4                No. Get out.
         LR    R5,R3               Length of command + 4
         ICM   R5,14,FULLZERO      Clear hi order 3 bytes.
         LH    R3,2(,R1)           Load offset.
         SR    R5,R3               Subtract offset from full length+4
         SH    R5,=H'4'            Correct for length of cmdbufr header
         BC    8,WMESS2            Zero, message to enter userid.
         BC    5,EOJ8              Less, or overflow, out.
PARM     DS    0H
         BAL   R9,GETIDS           Get parameters for the command.
         B     EOJ0
*
* --- Parms gotten at this point.                            -------- *
*
** ---------------------------------------------------------------- **
WMESS2   DS    0H                  Print help messages.
         BAL   R9,PRINTERR
         B     EOJ4
** ---------------------------------------------------------------- **
EOJ0     DS    0H                  End of job.
         APUT  RETURN0,L'RETURN0
         LA    R15,0               Set CC = 0.
         B     RETURN
EOJ4     DS    0H
         APUT  RETURN4,L'RETURN4
         LA    R15,4               Set CC = 4.
         B     RETURN
EOJ8     DS    0H
         APUT  RETURN8,L'RETURN8
         LA    R15,8               Set CC = 8.
         B     RETURN
RETURN   L     R13,SAVE+4
         L     R14,12(,R13)
         LM    R0,R12,20(R13)
         BR    R14
** ---------------------------------------------------------------- **
NOTAUTH  DS    0H                  Command not APF authorized message.
         APUT  MESSAGNA,L'MESSAGNA
         B     EOJ4
** ---------------------------------------------------------------- **
NOTFOUND DS    0H                  Command NOT ALLOWED message.
         APUT  MESSAGAU,L'MESSAGAU
         B     RETURN
** ---------------------------------------------------------------- **
* - - - - - - - - - - - - - - - - - - - - - - - - - - - - - - - - *
*        Get the parameters for the command.                      *
* - - - - - - - - - - - - - - - - - - - - - - - - - - - - - - - - *
*   Notes:  The ASID(xxx) can be coded first, without a userid.   *
*           A dash can be coded first, to run the entire CSCB     *
*            chain and display all the jobnames in it, with       *
*            their associated ASIDs.  ? coded first gives HELP.   *
*           If you code the word CSCB or DISP(lay) after either   *
*            a jobname or an ASID(hhhh) then a display of the     *
*            matching CSCB chain entries will be displayed, and   *
*            no changes will be made.                             *
* - - - - - - - - - - - - - - - - - - - - - - - - - - - - - - - - *
GETIDS   DS    0H                  Get all parameters for the program.
         ST    R9,SAVER9A
         ST    R4,SAVER4C
         AR    R1,R3               Point ...
         LA    R1,4(,R1)           ... to char.
         LA    R6,8                Load reg for BCT loop.
         LR    R7,R1               Initialize pointer to first
         LA    R7,0(,R7)                character of the ID field.
         LA    R8,0                Initialize character count.
         MVC   JOBID(8),BLANKS     Clear (first param - JOBNAME) field.
         LA    R4,JOBID            Point reg to beginng of JOBID field.
*
CUTIDLEN DS    0H                  Look at the JOBID field first.
*                                  (May contain ASID( or CSCB.)
*
         CLI   0(R7),X'40'         Is this character a blank?
         BE    NOMORCUT            Yes, we are at the end of the field.
         MVC   0(1,R4),0(R7)       Move only one character at a time.
         OC    JOBID(8),BLANKS     And uppercase the partial jobid.
*
*   Is this a run of the CSCB chain only?
* -- >  Test for CSCB  first  ---- below
         CLI   JOBID,C'-'          Did we code '-' first?
         BNE   CSCBHELP            No. Try if help asked for.
         B     CSCBRUN1            Yes. Run entire CSCB chain.
* - > Help
CSCBHELP DS    0H
         CLI   JOBID,C'?'          Help?
         BNE   NOCSCB              No. Skip this code.
         BAL   R9,PRINTERR         Yes. Print messages
         B     EOJ0                  and get out with code 0.
* - > Help
CSCBRUN1 DS    0H
         ST    R8,SAVER8A          Store count for display if needed.
         OI    FLAG2,X'40'         Mark that this is CSCB only run.
         BAL   R9,RUNCSCB          Do the run for CSCB chain.
         B     EOJ0                Out with normal return code.
NOCSCB   DS    0H
* -- >  Test for CSCB  first  ---- above
*
*   Was the ASCB(hhh) parameter coded without the jobid?
* -- >  Test for ASID( first  ---- below
         CLC   JOBID(L'ASIDC),ASIDC  Did we code ASID( in jobid field?
         BNE   NOASIDF             No. Pass this code.
         OI    FLAG1,X'01'         Flag that ASID( ) was first.
         NI    FLAG1,X'FF'-X'02'   Turn off Jobname in jobid field flag
         MVC   ASIDWKL(L'ASIDC),JOBID  Move the ASID( to proper field.
         MVC   JOBID,BLANKS        Blank out Job ID if ASID( coded.
         LA    R7,1(,R7)           Bump another character.
         LA    R8,1(,R8)           Count another character.
         LA    R6,1                Set number of branches later.
*                                  This will limit number of params
*                                   that are searched for.
         B     ASIDONLY            Bypass all the real jobname stuff.
* -- >  Test for ASID( first  ---- above
NOASIDF  DS    0H                  ASID( is not the first parameter.
         LA    R4,1(,R4)           Bump another character.
         LA    R7,1(,R7)           Bump another character.
         LA    R8,1(,R8)           Count another character.
         CR    R8,R5               End of command buffer ?
         BNL   NOMORCUT            Yes. Get out now.
         BCT   R6,CUTIDLEN         Try for the next blank, up till 8.
NOMORCUT DS    0H
         STC   R8,SAVCOUNT         Save length of Jobname
         L     R4,SAVER4C          Restore work register for use later.
         OC    JOBID(8),BLANKS     Uppercase the new Job Id.
         OI    FLAG1,X'02'         Set 'Jobname Coded' flag.
*  -  Display the found JOBID - below
         MVC   OUTPUT,OUTPUT-1
         MVC   OUTPUT(15),=C'Search Jobname:'
         MVC   OUTPUT+17(8),JOBID
         APUT  OUTPUT,30
         APUT  MESSAGEL,L'MESSAGEL
*  -  Display the found JOBID - above
         LA    R6,1                Set number of branches later.
*                                  This will limit number of params
*                                   that are searched for.
         B     LOOKKEYW
*  Constants - below - ***
JOBID    DC    C'        '         STORE PARM USERID HERE
BLANKS   DC    C'        '         8 BLANKS
MESSAGET DC    C'CNCLPG - Make a Job, STC or TSU Cancelable, etc. (? foX
               r help)'
MESSAGEU DC    C'------ - ---- - ---- --- -- --- ----------- ----'
MESSAGEL DC    C'----------------------------'
MESSAGEM DC    C'-----------------------------------------------'
MESSAG2A DC    C'Enter JOBNAME and/or ASID(hhhh) after COMMAND name,'
MESSAG2B DC    C'   then CNCL, NCNC, FORC, NFRC, or code CSCB or DISP.'
MESSAG2C DC    C'   DISPlay or CSCB will display CSCB chain entries,'
MESSAG2D DC    C'   without changing them.'
MESSAG2E DC    C' When changing a job, we want to be accurate, '
MESSAG2F DC    C'  therefore you should use the DISPlay option first.'
MESSAG2G DC   C' To display the whole CSCB, code - (dash) for JOBNAME.'
MESSAG2H DC    C' To see this help message, code ? for JOBNAME.'
MESSAG2I DC    C'Notes : '
MESSAG2J DC   C' CSCB (DISP) display for an ASID shows all occurrences'
MESSAG2K DC    C'  for that ASID, regardless of JOBNAME.      '
MESSAG2L DC C' CSCB (DISP) display for a JOBNAME shows all occurrences'
MESSAG2M DC    C'  for that JOBNAME, regardless of ASID.      '
MESSAG2N DC    C' CNCL, NCNC, FORC, NFRC will change the first '
MESSAG2O DC    C'  entry in the CSCB chain that matches, if multiple '
MESSAG2P DC    C'  entries exist. But DISP will display ALL applicable'
MESSAG2Q DC    C'  matching entries in the CSCB chain, so you can see'
MESSAG2R DC    C'  which one you want to change specifically.'
MESSAG2S DC    C' When you code BOTH jobname and asid, to CHANGE it,'
MESSAG2T DC    C'  then ONLY that specific job and asid gets changed.'
MESSAGE3 DC    C'WE GOT HERE'
MESSAGE4 DC    C'TEST CHECK THIS'
MESSAGAU DC    C'IKJ56500I COMMAND CNCLPG NOT FOUND'
RETURN0  DC    C'Return code is 0'
RETURN4  DC    C'Return code is 4'
RETURN8  DC    C'Return code is 8'
*                     ***  Places to save registers  ***  below
SAVER1A  DS    F
SAVER3A  DS    F
SAVER3B  DS    F
SAVER3C  DS    F
SAVER3D  DS    F
SAVER3E  DS    F
SAVER4A  DS    F
SAVER4B  DS    F
SAVER4C  DS    F
SAVER5A  DS    F
SAVER7A  DS    F
SAVER8A  DS    F
SAVER9A  DS    F
SAVER9B  DS    F
SAVER9C  DS    F
SAVER9D  DS    F
SAVER9E  DS    F
SAVER9F  DS    F
SAVER9G  DS    F
SAVER9H  DS    F
SAVER9I  DS    F
SAVER9J  DS    F
SAVER9K  DS    F
*                     ***  Places to save registers  ***  above
SAVCOUNT DS    X
DUBLZERO DC    D'0'
FULLZERO DC    F'0'
CANCINDC DC    X'00'
CANCKEY0 DC    X'00'
NEWCHACT DC    X'00'
*  Constants - above - ***
LOOKKEYW DS    0H                  Look for additional keywords.
         LA    R7,1(,R7)           Bump command buffer pointer.
         LA    R8,1(,R8)           Bump character counter.
         CR    R8,R5               End of command buffer?
         BNL   GETIDEND            Yes. Don't look any more.
         MVC   ASIDWKL(5),BLANKS   Clear parameter work field.
         MVC   ASIDWKL(5),0(R7)    Next 5 characters to work field.
ASIDONLY DS    0H                  Jump to here if ASID( coded first.
         OC    ASIDWKL(4),BLANKS   Uppercase work field.
         CLC   ASIDC,ASIDWKL       Is the ASID( keyword there?
         BE    DOASID              Yes. Process it.
         CLC   CNCLC,ASIDWKL       Is the CNCL  keyword there?
         BE    DOCNCL              Yes. Process it.
         CLC   NCNCC,ASIDWKL       Is the NCNC  keyword there?
         BE    DONCNC              Yes. Process it.
         CLC   FORCC,ASIDWKL       Is the FORC  keyword there?
         BE    DOFORC              Yes. Process it.
         CLC   NFRCC,ASIDWKL       Is the NFRC  keyword there?
         BE    DONFRC              Yes. Process it.
         CLC   CSCBC,ASIDWKL       Is the CSCB  keyword there?
         BE    DOCSCB              Yes. Process it.
         CLC   DISPC,ASIDWKL       Is the DISP  keyword there?
         BE    DOCSCB              Yes. Process it.
         B     LOOKKEYW            Go loop and look at next character.
ASIDWKL  DC    CL5' '              Second parameter work area.
*
ASIDC    DC    C'ASID('            Literals....
CNCLC    DC    C'CNCL'
NCNCC    DC    C'NCNC'
FORCC    DC    C'FORC'
NFRCC    DC    C'NFRC'
CSCBC    DC    C'CSCB'
DISPC    DC    C'DISP'
*
DOASID   DS    0H                  Look for hex value of the ASID.
         OI    FLAG1,X'04'         Show that ASID( was coded.
         BAL   R9,GETASID          Go get the rest of the parameters.
         MVC   ASIDWKL(5),BLANKS   Blank out the second wkarea for
*                                   a further parameter search.
         B     LOOKKEYW            Re-loop to look further for params.
*
DOCNCL   DS    0H                  Handle CNCL (cancelable) keyword.
         OI    CANCINDC,X'08'      Show which CHACT bit is affected.
         OI    FLAG2,X'01'         Show that CNCL was coded.
         BAL   R9,FINDCSCB         Look thru CSCB chain for a match.
         OI    ONSWIT,X'01'        Set to OR the bits
         NI    ONSWIT,X'FF'-X'02'   and not to AND the bits.
         BAL   R9,KEYZERO          Do the Key 0 changes to CSCB entry.
         BAL   R9,PRNWCSCB         Print the info from the current CSCB
         BAL   R9,FORCHACT         Format the relevant CHACT flags.
         APUT  MESSAGEL,L'MESSAGEL   Print an underline.
* ------------------------------------------------------------------- *
*                                    Print the action code.
         MVC   OUTPUT,OUTPUT-1
         MVC   OUTPUT(15),=C'Action code   :'
         MVC   OUTPUT+17(4),CNCLC
         APUT  OUTPUT,25
*                                    Print the bit in CHACT affected.
         MVC   OUTPUT,OUTPUT-1
         MVC   OUTPUT(23),=C'Cancel Indicator Flag :'
         HEX   OUTPUT+25,1,CANCINDC
         APUT  OUTPUT,30
*
         BCT   R6,LOOKKEYW         Look for another keyword.
         B     GETIDEND            After enough looks, end.
* ------------------------------------------------------------------- *
DONCNC   DS    0H                  Handle NCNC (non-cancelable) keyword
         OI    CANCINDC,X'08'      Show which CHACT bit is affected.
         OI    FLAG2,X'02'         Show that NCNC was coded.
         BAL   R9,FINDCSCB         Look thru CSCB chain for a match.
         OI    ONSWIT,X'02'        Set to AND the bits
         NI    ONSWIT,X'FF'-X'01'   and not to OR the bits.
         BAL   R9,KEYZERO          Do the Key 0 changes to CSCB entry.
         BAL   R9,PRNWCSCB         Print the info from the current CSCB
         BAL   R9,FORCHACT         Format the relevant CHACT flags.
         APUT  MESSAGEL,L'MESSAGEL   Print an underline.
*                                    Print the action code.
         MVC   OUTPUT,OUTPUT-1
         MVC   OUTPUT(15),=C'Action code   :'
         MVC   OUTPUT+17(4),NCNCC
         APUT  OUTPUT,25
*                                    Print the bit in CHACT affected.
         MVC   OUTPUT,OUTPUT-1
         MVC   OUTPUT(23),=C'Cancel Indicator Flag :'
         HEX   OUTPUT+25,1,CANCINDC
         APUT  OUTPUT,30
*
         BCT   R6,LOOKKEYW         Look for another keyword.
         B     GETIDEND            After enough looks, end.
* ------------------------------------------------------------------- *
DOFORC   DS    0H                  Handle FORC (forcible) keyword
         OI    FLAG2,X'10'         Show which CHACT bit is affected.
         OI    CANCINDC,X'01'      Show that FORC was coded.
         BAL   R9,FINDCSCB         Look thru CSCB chain for a match.
         OI    ONSWIT,X'01'        Set to OR the bits
         NI    ONSWIT,X'FF'-X'02'   and not to AND the bits.
         BAL   R9,KEYZERO          Do the Key 0 changes to CSCB entry.
         BAL   R9,PRNWCSCB         Print the info from the current CSCB
         BAL   R9,FORCHACT         Format the relevant CHACT flags.
         APUT  MESSAGEL,L'MESSAGEL   Print an underline.
*
         MVC   OUTPUT,OUTPUT-1       Print the action code.
         MVC   OUTPUT(15),=C'Action code   :'
         MVC   OUTPUT+17(4),FORCC
         APUT  OUTPUT,25
*
         MVC   OUTPUT,OUTPUT-1       Print the bit in CHACT affected.
         MVC   OUTPUT(23),=C'Cancel Indicator Flag :'
         HEX   OUTPUT+25,1,CANCINDC
         APUT  OUTPUT,30
*
         BCT   R6,LOOKKEYW         Look for another keyword.
         B     GETIDEND            After enough looks, end.
* ------------------------------------------------------------------- *
DONFRC   DS    0H                  Handle NFRC (non-forcible) keyword
         OI    FLAG2,X'20'         Show which CHACT bit is affected.
         OI    CANCINDC,X'01'      Show that NFRC was coded.
         BAL   R9,FINDCSCB         Look thru CSCB chain for a match.
         OI    ONSWIT,X'02'        Set to AND the bits
         NI    ONSWIT,X'FF'-X'01'   and not to OR the bits.
         BAL   R9,KEYZERO          Do the Key 0 changes to CSCB entry.
         BAL   R9,PRNWCSCB         Print the info from the current CSCB
         BAL   R9,FORCHACT         Format the relevant CHACT flags.
         APUT  MESSAGEL,L'MESSAGEL   Print an underline.
*
         MVC   OUTPUT,OUTPUT-1       Print the action code.
         MVC   OUTPUT(15),=C'Action code   :'
         MVC   OUTPUT+17(4),NFRCC
         APUT  OUTPUT,25
*
         MVC   OUTPUT,OUTPUT-1       Print the bit in CHACT affected.
         MVC   OUTPUT(23),=C'Cancel Indicator Flag :'
         HEX   OUTPUT+25,1,CANCINDC
         APUT  OUTPUT,30
*
         BCT   R6,LOOKKEYW         Look for another keyword.
         B     GETIDEND            After enough looks, end.
* ------------------------------------------------------------------- *
DOCSCB   DS    0H
         OI    FLAG1,X'08'         Show CSCB keyword was coded.
         OI    FLAG2,X'40'         Show CSCB keyword was coded.
         MVC   OUTPUT,OUTPUT-1       Print the action code.
         MVC   OUTPUT(15),=C'Action code   :'
         MVC   OUTPUT+17(4),CSCBC
         MVC   OUTPUT+23(9),=C'(DISPlay)'
         APUT  OUTPUT,35
         BAL   R9,RUNCSCB          Run the CSCB chain with print.
         BCT   R6,LOOKKEYW         Look for another keyword.
         B     GETIDEND            After enough looks, end.
* ------------------------------------------------------------------- *
GETIDEND DS    0H                  End of keyword processing.
         TM    FLAG2,X'7F'         Check if any real actions were asked
         BM    GETKEYNR            Yes, some were.
         APUT  MESSAGEY,L'MESSAGEY    No. Display help messages.
         BAL   R9,PRINTERR
         B     EOJ4                   And end with code = 4.
GETKEYNR DS    0H                  Real actions WERE asked for.
         B     EOJ0                So end with normal return code.
         L     R9,SAVER9A
         BR    R9
** ---------------------------------------------------------------- **
HEX      DS    0H                  Display hex values.
         ST    R9,SAVER9B
         MVC   1(1,R15),0(R1)      Move byte.
         UNPK  0(3,R15),1(2,R15)   Unpack.
         TR    0(2,R15),HEXTAB-240
         LA    R15,2(,R15)         Increment output pointer.
         LA    R1,1(,R1)           Increment input pointer.
         BCT   R0,HEX              Decrement length, then loop.
         MVI   0(R15),C' '         Blank the trailing byte.
         L     R9,SAVER9B
         BR    R9                  Return to caller.
HEXTAB   DC    C'0123456789ABCDEF' Translate table.
** ---------------------------------------------------------------- **
GETASID  DS    0H                  Get hex ASID for 2 bytes.
         ST    R9,SAVER9C          Save registers.
         STM   R1,R6,SAVERGS1
         LA    R6,4                Load BCT register.
         LA    R4,ASIDWK           Point to ASID work area.
         TM    FLAG1,X'02'         Ask if Job name was coded.
         BZ    GETAFL01            Wasn't. Have to adjust pointers.
         LA    R7,5(,R7)           Bump command buffer pointer.
         LA    R8,5(,R8)           Bump character counter.
GETAFL01 DS    0H
GETASIDL DS    0H                  Loop to get hex ASID for 4 display
*                                    bytes to convert to 2 hex bytes.
         CLI   0(R7),C')'          Have we reached close parenthesis?
         BE    GETASIDG            Yes, assume we've got it.
         CLI   0(R7),C' '          Have we hit a blank?
         BE    GETASIDG            Yes, assume we've got it.
         MVC   0(1,R4),0(R7)       Otherwise move one character over.
         LA    R4,1(,R4)           Bump one ASIDWK character (target)
         LA    R7,1(,R7)           Bump command buffer pointer.
         LA    R8,1(,R8)           Bump character counter.
         BCT   R6,GETASIDL         Loop for 4 characters.
         B     GETASIDG            We don't look for more than 4.
GETASIDG DS    0H
*        APUT  ASIDWK,4
         LA    R4,ASIDWK           Point register at workarea again.
         LA    R1,4                Maximum of 4 characters.
GETASIDA DS    0H
         CLI   3(R4),X'40'         Is last character a blank (<4 total)
         BNE   GETASIDM            No. We're finished sliding.
         BCTR  R4,0                Slide the pointer one place back.
         BCT   R1,GETASIDA         Do it no more than 4 times.
GETASIDM DS    0H
         MVC   ASIDMV(4),0(R4)     Move 4 characters so last one
*                                     is not blank.
         MVC   ASIDWKSV(4),ASIDMV    Save these 4 characters
         MVC   ASIDWKS(4),ASIDMV        in two places.
         MVC   OUTPUT,OUTPUT-1       Clear output line.
         MVC   OUTPUT(25),ASIDMSG    Move coded display format asid.
         APUT  OUTPUT,40             And put out the message.
         TR    ASIDMV(4),ASIDVAL     Translate display format message
*                                      into format X'0h0h0h0h'.
         BAL   R9,VALIDTR            Validity check the hex number.