         MACRO
&NAME    #CALL &MOD,&RPARM1=
         AIF   ('&MOD' EQ '').MODERR
         AIF   ('&NAME' EQ '').CALLMOD
&NAME    DS    0H
.CALLMOD ANOP
         AIF   ('&RPARM1' EQ '').MOD
         LA    R1,&RPARM1
.MOD     ANOP
         L     R15,=A(&MOD)                      PICK UP ENTRY ADDRESS
         BALR  R14,R15                           CALL ROUTINE
         MEXIT
.MODERR  ANOP
         MNOTE 8,'A ENTRY NAME MUST BE SUPPLIED TO #CALL MACRO'
         MEND
