         MACRO
&NAME    #RETURN &OFFSET=0,&MAIN=NO,&RC=
         LCLC  &INST
         AIF   ('&NAME' EQ '').NONAME
&NAME    DS    0H
.NONAME  ANOP
         AIF   ('&MAIN' EQ 'NO').NOTMAIN
         AIF   ('&RC' EQ '(R15)').MAINRC
         L     R13,#SVEAREA+4                    RELOAD CALLER'S SA ADR
         LM    R14,R12,12(R13)                   RESTORE CALLER'S REGS
         AGO   .RCSET
.MAINRC  ANOP
         L     R13,#SVEAREA+4                    RELOAD CALLER'S SA ADR
         L     R14,12(R13)                       RESTORE CALLER'S REGS
         LM    R0,R12,20(R13)                    RESTORE CALLER'S REGS
         BR    R14                               RETURN TO CALLER'S
         MEXIT
.NOTMAIN ANOP
         LA    R2,16(R12)                         POINT TO SAVE AREA
         LM    R2,R14,0(R2)                       RESTORE CALLER'S REGS
.RCSET   ANOP
         AIF   ('&RC' EQ '').RTRN
&INS     SETC  'A'
         AIF   ('&RC' EQ 'R15').RTRN
         AIF   ('&RC' EQ '(R15)').RTRN
         AIF   ('&RC'(1,1) NE 'R').RCINST
&INS     SETC  'R'
.RCINST  ANOP
         L&INS R15,&RC                            SET RETURN CODE
.RTRN    ANOP
         AIF   ('&OFFSET'(1,1) EQ 'R').REGOFF
         B     &OFFSET.(R14)                      RETURN WITH OFFSET
         MEXIT
.REGOFF  ANOP
         B     0(R14,&OFFSET)                     RETURN WITH OFFSET
         MEND
