         MACRO                                                            @BLANK
&NAME    @BLANK &AREA=                                                    @BLANK
.*********************************************************************    @BLANK
&NAME    MVI   &AREA,X'40'                                                @BLANK
         MVC   &AREA+1(L'&AREA-1),&AREA                                   @BLANK
.*********************************************************************    @BLANK
         MEXIT                                                            @BLANK
         MEND                                                             @BLANK
