         MACRO                                                             @DASH
&NAME    @DASH &AREA=                                                      @DASH
.*********************************************************************     @DASH
&NAME    MVI   &AREA,X'60'                                                 @DASH
         MVC   &AREA+1(L'&AREA-1),&AREA                                    @DASH
.*********************************************************************     @DASH
         MEXIT                                                             @DASH
         MEND                                                              @DASH
