         MACRO                                                            @ERROR
&NAME    @ERROR &ROUTINE,&RETURN,&ERRFLD,&ERRLOC                          @ERROR
.*********************************************************************    @ERROR
.*         MACRO IS USED TO CALL ERROR SUBROUTINE                    *    @ERROR
.*         MAINLINE ROUTINES ONLY                                    *    @ERROR
.*********************************************************************    @ERROR
&NAME    MVC   ERRFLD,=CL4'&ERRFLD'                                       @ERROR
         MVC   ERRLOC,=CL4'&ERRLOC'                                       @ERROR
         L     R15,@&ROUTINE                                              @ERROR
         BALR  R14,R15                                                    @ERROR
         B     &RETURN                                                    @ERROR
.*********************************************************************    @ERROR
           MEND                                                           @ERROR
