         MACRO                                                             @FILL
&NAME    @FILL &AREA=,&CHAR=40                                             @FILL
.*********************************************************************     @FILL
&NAME    MVI   &AREA,X'&CHAR'                                              @FILL
         MVC   &AREA+1(L'&AREA-1),&AREA                                    @FILL
.*********************************************************************     @FILL
         MEXIT                                                             @FILL
         MEND                                                              @FILL
