         MACRO                                                           @FMTREG
&NAME    @FMTREG &REG,&FWORD,&DWORD,&TRTAB                               @FMTREG
*********************************************************************    @FMTREG
*                                                                   *    @FMTREG
*       MACRO IS USED TO FORMAT A REGISTER FOR PRINTING             *    @FMTREG
*                                                                   *    @FMTREG
*********************************************************************    @FMTREG
*                                                                   *    @FMTREG
*       THE AREAS POINTED TO BY &FWORD AND &DWORD                   *    @FMTREG
*       SHOULD BE DEFINDED AS SHOWN BELOW:                          *    @FMTREG
*                                                                   *    @FMTREG
*       *                                                           *    @FMTREG
*                DS    0F                                           *    @FMTREG
*       FWORD    DS    XL5                                          *    @FMTREG
*       *                                                           *    @FMTREG
*                DS    0D                                           *    @FMTREG
*       DWORD    DS    XL9                                          *    @FMTREG
*       *                                                           *    @FMTREG
*                                                                   *    @FMTREG
*********************************************************************    @FMTREG
*                                                                   *    @FMTREG
*       THE FORMAT OF THE TRANSLATE TABLE NEEDED TO FORMAT          *    @FMTREG
*       THE REGISTER FOR PRINTING IS SHOWN BELOW                    *    @FMTREG
*                                                                   *    @FMTREG
*       *                                                           *    @FMTREG
*       HEXTAB   DS    0XL256                                       *    @FMTREG
*       *                  ' 0 1 2 3 4 5 6 7 8 9 A B C D E F'       *    @FMTREG
*       ROW0TOE  DC    240XL1'40'                                   *    @FMTREG
*       ROWF     DC    XL16'F0F1F2F3F4F5F6F7F8F9C1C2C3C4C5C6'       *    @FMTREG
*       *                  ' 0 1 2 3 4 5 6 7 8 9 A B C D E F'       *    @FMTREG
*       *                                                           *    @FMTREG
*                                                                   *    @FMTREG
*********************************************************************    @FMTREG
         LCLC  &FLEN,&DLEN                                               @FMTREG
&FLEN    SETC  '(5)'                                                     @FMTREG
&DLEN    SETC  '(9)'                                                     @FMTREG
&NAME    XC    &FWORD,&FWORD                                             @FMTREG
         XC    &DWORD,&DWORD                                             @FMTREG
         ST    &REG,&FWORD                                               @FMTREG
         UNPK  &DWORD.&DLEN,&FWORD.&FLEN                                 @FMTREG
&DLEN    SETC  '(8)'                                                     @FMTREG
         TR    &DWORD.&DLEN,&TRTAB                                       @FMTREG
         MEND                                                            @FMTREG
