         MACRO                                                              @MVC
&NAME    @MVC   &MOUT,&MIN                                                  @MVC
.*********************************************************************      @MVC
&NAME    MVI   &MOUT,X'40'                                                  @MVC
         MVC   &MOUT+1(L'&MOUT-1),&MOUT                                     @MVC
         MVC   &MOUT+0(L'&MIN),&MIN                                         @MVC
.*********************************************************************      @MVC
         MEXIT                                                              @MVC
         MEND                                                               @MVC
