         MACRO                                                             @ZERO
&NAME    @ZERO  &AREA=                                                     @ZERO
.*********************************************************************     @ZERO
&NAME    MVI   &AREA,X'00'                                                 @ZERO
         MVC   &AREA+1(L'&AREA-1),&AREA                                    @ZERO
.*********************************************************************     @ZERO
         MEXIT                                                             @ZERO
         MEND                                                              @ZERO
