         MACRO                                                              KEYT
&NAME    KEYT  &KEYWORD,&RTN,&AREA,&TYPE,&VALCNT,&FIELD1=,&FIELD2=,    X    KEYT
               &FIELD3=,&FIELD4=,&FIELD5=,&FIELD6=,&FIELD7=,           X    KEYT
               &FIELD8=,&FIELD9=,&FIELD10=,&FIELD11=,&FIELD12=,        X    KEYT
               &FIELD13,&FIELD14=,&FIELD15=,&END=,                     X    KEYT
               &LEN=                                                        KEYT
         LCLA  &KVVN,&CNTR1,&KVLL,&CNTR2                                    KEYT
         LCLC  &P1,&P2,&P3,&P4,&LEN1,&LEN2                                  KEYT
         AIF   ('&SYSLIST(1)' NE '').KVRM020 ONLY REQUIRED KEYWORD          KEYT
         MNOTE 8,'1ST PARM MISSING AND IS REQUIRED'                         KEYT
         MEXIT                                                              KEYT
.KVRM020 ANOP                                                               KEYT
&KVLL    SETA  K'&SYSLIST(1)-1     SET KEYWORD LENGTH-1                     KEYT
&NAME    DC    AL1(&KVLL)          KEY LENGTH-1                             KEYT
         AIF   ('&SYSLIST(2)' NE '').KVRM030 IS EXIT RTN SPECIFIED          KEYT
         DC    SL2(0)              EXIT RTN NOT SPECIFIED                   KEYT
         DC    SL2(0)              EXIT PARM NOT SPECIFIED                  KEYT
         AGO   .KVRM049                                                     KEYT
.KVRM030 ANOP                                                               KEYT
         DC    SL2(&SYSLIST(2,1))  EXIT ROUTINE ADDR                        KEYT
         AIF   (N'&SYSLIST(2) NE 1).KVRM046                                 KEYT
         DC    SL2(0)              NO RTN PARM INFO REQUESTED               KEYT
         AGO   .KVRM049                                                     KEYT
.KVRM046 ANOP                                                               KEYT
         DC    SL2(&SYSLIST(2,2))  EXIT RTN PARM SPECIFIED                  KEYT
.KVRM049 ANOP                                                               KEYT
         AIF   ('&SYSLIST(3)' NE '').KVRM050                                KEYT
         DC    SL2(0)              NO AREA SPECIFIED                        KEYT
         AGO   .KVRM060                                                     KEYT
.KVRM050 ANOP                                                               KEYT
         DC    SL2(&AREA)          AREA ADDR SPECIFIED                      KEYT
.KVRM060 ANOP                                                               KEYT
         AIF   ('&LEN' NE '').KVRM070                                       KEYT
         DC    AL1(0)              VALUE LENGTH LOW DEFAULT                 KEYT
         DC    AL1(0)              VALUE LENGTH HIGH DEFAULT                KEYT
         AGO   .KVRM078                                                     KEYT
.KVRM070 ANOP                                                               KEYT
&LEN1    SETC  '&LEN(1)'                                                    KEYT
&LEN2    SETC  '&LEN(2)'                                                    KEYT
         AIF   ('&LEN1' NE '').KVRM074                                      KEYT
         DC    AL1(1)              VALUE LENGTH LOW IMPLIED                 KEYT
         AGO   .KVRM077                                                     KEYT
.KVRM074 ANOP                                                               KEYT
         DC    AL1(&LEN1)          VALUE LENGTH LOW SPECIFIED               KEYT
.KVRM076 ANOP                                                               KEYT
         AIF   ('&LEN2' NE '').KVRM077                                      KEYT
         DC    AL1(&LEN1)          VALUE LENGTH HIGH SPECIFIED              KEYT
         AGO   .KVRM078                                                     KEYT
.KVRM077 ANOP                                                               KEYT
         DC    AL1(&LEN2)          VALUE LENGTH HIGH SPECIFIED              KEYT
.KVRM078 ANOP                                                               KEYT
         AIF   (N'&SYSLIST(5) NE 0).KVRM090 VALUE COUNT SPECIFIED           KEYT
         DC    AL1(1)              VALUE COUNT LOW DEFAULT                  KEYT
         DC    AL1(1)              VALUE COUNT HIGH DEFAULT                 KEYT
         AGO   .KVRM110                                                     KEYT
.KVRM090 ANOP                                                               KEYT
         AIF   (N'&SYSLIST(5) NE 1).KVRM094                                 KEYT
         AIF   ('&SYSLIST(5,1)' EQ '(').KVRM094                             KEYT
         DC    AL1(0)              VALUE COUNT LOW IMPLIED                  KEYT
         DC    AL1(&VALCNT)        VALUE COUNT HIGH SPECIFIED               KEYT
         AGO   .KVRM110                                                     KEYT
.KVRM094 ANOP                                                               KEYT
         AIF   ('&SYSLIST(5,1)' EQ ')').KVRM096                             KEYT
         DC    AL1(&SYSLIST(5,1))  VALUE COUNT LOW                          KEYT
         DC    AL1(&SYSLIST(5,2))  VALUE COUNT HIGH                         KEYT
         AGO   .KVRM110                                                     KEYT
.KVRM096 ANOP                                                               KEYT
         DC    AL1(&SYSLIST(5,1))  VALUE COUNT HIGH                         KEYT
.KVRM110 ANOP                                                               KEYT
         AIF   ('&SYSLIST(4)' NE '').KVRM120                                KEYT
         DC    X'00'               NO VALUE VALIDATION REQUESTED            KEYT
         AGO   .KVRM160                                                     KEYT
.KVRM120 ANOP                                                               KEYT
         AIF   ('&SYSLIST(4)' NE 'ALPHA').KVRM130                           KEYT
         DC    X'01'               ALPHA VALIDATION REQUESTED               KEYT
         AGO   .KVRM160                                                     KEYT
.KVRM130 ANOP                                                               KEYT
         AIF   ('&SYSLIST(4)' NE 'NUMERIC').KVRM140                         KEYT
         DC    X'02'               NUMERIC VALIDATION REQUESTED             KEYT
         AGO   .KVRM160                                                     KEYT
.KVRM140 ANOP                                                               KEYT
         AIF   ('&SYSLIST(4)' NE 'ALPHANUM').KVRM150                        KEYT
         DC    X'03'               ALPHANUM VALIDATION REQUESTED            KEYT
         AGO   .KVRM160                                                     KEYT
.KVRM150 ANOP                                                               KEYT
         MNOTE 8,'INVALID VALIDATION TYPE SPECIFIED  &TYPE'                 KEYT
.KVRM160 ANOP                                                               KEYT
         AIF   ('&FIELD1' EQ '' ).KVRM166                                   KEYT
&KVVN    SETA  &KVVN+1                                                      KEYT
         AIF   ('&FIELD2' EQ '' ).KVRM166                                   KEYT
&KVVN    SETA  &KVVN+1                                                      KEYT
         AIF   ('&FIELD3' EQ '' ).KVRM166                                   KEYT
&KVVN    SETA  &KVVN+1                                                      KEYT
         AIF   ('&FIELD4' EQ '' ).KVRM166                                   KEYT
&KVVN    SETA  &KVVN+1                                                      KEYT
         AIF   ('&FIELD5' EQ '' ).KVRM166                                   KEYT
&KVVN    SETA  &KVVN+1                                                      KEYT
         AIF   ('&FIELD6' EQ '' ).KVRM166                                   KEYT
&KVVN    SETA  &KVVN+1                                                      KEYT
         AIF   ('&FIELD7' EQ '' ).KVRM166                                   KEYT
&KVVN    SETA  &KVVN+1                                                      KEYT
         AIF   ('&FIELD8' EQ '' ).KVRM166                                   KEYT
&KVVN    SETA  &KVVN+1                                                      KEYT
         AIF   ('&FIELD9' EQ '' ).KVRM166                                   KEYT
&KVVN    SETA  &KVVN+1                                                      KEYT
         AIF   ('&FIELD10' EQ '' ).KVRM166                                  KEYT
&KVVN    SETA  &KVVN+1                                                      KEYT
         AIF   ('&FIELD11' EQ '' ).KVRM166                                  KEYT
&KVVN    SETA  &KVVN+1                                                      KEYT
         AIF   ('&FIELD12' EQ '' ).KVRM166                                  KEYT
&KVVN    SETA  &KVVN+1                                                      KEYT
         AIF   ('&FIELD13' EQ '' ).KVRM166                                  KEYT
&KVVN    SETA  &KVVN+1                                                      KEYT
         AIF   ('&FIELD14' EQ '' ).KVRM166                                  KEYT
&KVVN    SETA  &KVVN+1                                                      KEYT
         AIF   ('&FIELD15' EQ '' ).KVRM166                                  KEYT
&KVVN    SETA  &KVVN+1                                                      KEYT
.KVRM166 ANOP                                                               KEYT
         DC    AL1(&KVVN)          COUNT OF FIELDS SPECIFIED                KEYT
         DC    C'&KEYWORD'         REQUESTED KEYWORD                        KEYT
         AGO   .KVRM300                                                     KEYT
.KVRM180 ANOP                                                               KEYT
         AIF   ('&END' NE 'YES').KVRM190                                    KEYT
         DC    X'FFFF'             END OF TABLE INDICATIOR                  KEYT
.KVRM190 ANOP                                                               KEYT
         MEXIT                                                              KEYT
.KVRM300 ANOP                                                               KEYT
         AIF   ('&FIELD1' EQ '').KVRM180                                    KEYT
&CNTR1   SETA  1                                                            KEYT
&P1      SETC  '&FIELD1(1)'                                                 KEYT
&P2      SETC  '&FIELD1(2)'                                                 KEYT
&P3      SETC  '&FIELD1(3)'                                                 KEYT
&P4      SETC  '&FIELD1(4)'                                                 KEYT
         AGO   .KVRM500                                                     KEYT
.KVRM320 ANOP                                                               KEYT
         AIF   ('&FIELD2' EQ '').KVRM180                                    KEYT
&CNTR1   SETA  2                                                            KEYT
&P1      SETC  '&FIELD2(1)'                                                 KEYT
&P2      SETC  '&FIELD2(2)'                                                 KEYT
&P3      SETC  '&FIELD2(3)'                                                 KEYT
&P4      SETC  '&FIELD2(4)'                                                 KEYT
         AGO   .KVRM500                                                     KEYT
.KVRM330 ANOP                                                               KEYT
         AIF   ('&FIELD3' EQ '').KVRM180                                    KEYT
&CNTR1   SETA  3                                                            KEYT
&P1      SETC  '&FIELD3(1)'                                                 KEYT
&P2      SETC  '&FIELD3(2)'                                                 KEYT
&P3      SETC  '&FIELD3(3)'                                                 KEYT
&P4      SETC  '&FIELD3(4)'                                                 KEYT
         AGO   .KVRM500                                                     KEYT
.KVRM340 ANOP                                                               KEYT
         AIF   ('&FIELD4' EQ '').KVRM180                                    KEYT
&CNTR1   SETA  4                                                            KEYT
&P1      SETC  '&FIELD4(1)'                                                 KEYT
&P2      SETC  '&FIELD4(2)'                                                 KEYT
&P3      SETC  '&FIELD4(3)'                                                 KEYT
&P4      SETC  '&FIELD4(4)'                                                 KEYT
         AGO   .KVRM500                                                     KEYT
.KVRM350 ANOP                                                               KEYT
         AIF   ('&FIELD5' EQ '').KVRM180                                    KEYT
&CNTR1   SETA  5                                                            KEYT
&P1      SETC  '&FIELD5(1)'                                                 KEYT
&P2      SETC  '&FIELD5(2)'                                                 KEYT
&P3      SETC  '&FIELD5(3)'                                                 KEYT
&P4      SETC  '&FIELD5(4)'                                                 KEYT
         AGO   .KVRM500                                                     KEYT
.KVRM360 ANOP                                                               KEYT
         AIF   ('&FIELD6' EQ '').KVRM180                                    KEYT
&CNTR1   SETA  6                                                            KEYT
&P1      SETC  '&FIELD6(1)'                                                 KEYT
&P2      SETC  '&FIELD6(2)'                                                 KEYT
&P3      SETC  '&FIELD6(3)'                                                 KEYT
&P4      SETC  '&FIELD6(4)'                                                 KEYT
         AGO   .KVRM500                                                     KEYT
.KVRM370 ANOP                                                               KEYT
         AIF   ('&FIELD7' EQ '').KVRM180                                    KEYT
&CNTR1   SETA  7                                                            KEYT
&P1      SETC  '&FIELD7(1)'                                                 KEYT
&P2      SETC  '&FIELD7(2)'                                                 KEYT
&P3      SETC  '&FIELD7(3)'                                                 KEYT
&P4      SETC  '&FIELD7(4)'                                                 KEYT
         AGO   .KVRM500                                                     KEYT
.KVRM380 ANOP                                                               KEYT
         AIF   ('&FIELD8' EQ '').KVRM180                                    KEYT
&CNTR1   SETA  8                                                            KEYT
&P1      SETC  '&FIELD7(1)'                                                 KEYT
&P2      SETC  '&FIELD7(2)'                                                 KEYT
&P3      SETC  '&FIELD7(3)'                                                 KEYT
&P4      SETC  '&FIELD7(4)'                                                 KEYT
         AGO   .KVRM500                                                     KEYT
.KVRM390 ANOP                                                               KEYT
         AIF   ('&FIELD9' EQ '').KVRM180                                    KEYT
&CNTR1   SETA  9                                                            KEYT
&P1      SETC  '&FIELD7(1)'                                                 KEYT
&P2      SETC  '&FIELD7(2)'                                                 KEYT
&P3      SETC  '&FIELD7(3)'                                                 KEYT
&P4      SETC  '&FIELD7(4)'                                                 KEYT
         AGO   .KVRM500                                                     KEYT
.KVRM3A0 ANOP                                                               KEYT
         AIF   ('&FIELD10' EQ '').KVRM180                                   KEYT
&CNTR1   SETA  10                                                           KEYT
&P1      SETC  '&FIELD7(1)'                                                 KEYT
&P2      SETC  '&FIELD7(2)'                                                 KEYT
&P3      SETC  '&FIELD7(3)'                                                 KEYT
&P4      SETC  '&FIELD7(4)'                                                 KEYT
         AGO   .KVRM500                                                     KEYT
.KVRM3B0 ANOP                                                               KEYT
         AIF   ('&FIELD11' EQ '').KVRM180                                   KEYT
&CNTR1   SETA  11                                                           KEYT
&P1      SETC  '&FIELD7(1)'                                                 KEYT
&P2      SETC  '&FIELD7(2)'                                                 KEYT
&P3      SETC  '&FIELD7(3)'                                                 KEYT
&P4      SETC  '&FIELD7(4)'                                                 KEYT
         AGO   .KVRM500                                                     KEYT
.KVRM3C0 ANOP                                                               KEYT
         AIF   ('&FIELD12' EQ '').KVRM180                                   KEYT
&CNTR1   SETA  12                                                           KEYT
&P1      SETC  '&FIELD7(1)'                                                 KEYT
&P2      SETC  '&FIELD7(2)'                                                 KEYT
&P3      SETC  '&FIELD7(3)'                                                 KEYT
&P4      SETC  '&FIELD7(4)'                                                 KEYT
         AGO   .KVRM500                                                     KEYT
.KVRM3D0 ANOP                                                               KEYT
         AIF   ('&FIELD13' EQ '').KVRM180                                   KEYT
&CNTR1   SETA  13                                                           KEYT
&P1      SETC  '&FIELD7(1)'                                                 KEYT
&P2      SETC  '&FIELD7(2)'                                                 KEYT
&P3      SETC  '&FIELD7(3)'                                                 KEYT
&P4      SETC  '&FIELD7(4)'                                                 KEYT
         AGO   .KVRM500                                                     KEYT
.KVRM3E0 ANOP                                                               KEYT
         AIF   ('&FIELD14' EQ '').KVRM180                                   KEYT
&CNTR1   SETA  14                                                           KEYT
&P1      SETC  '&FIELD7(1)'                                                 KEYT
&P2      SETC  '&FIELD7(2)'                                                 KEYT
&P3      SETC  '&FIELD7(3)'                                                 KEYT
&P4      SETC  '&FIELD7(4)'                                                 KEYT
         AGO   .KVRM500                                                     KEYT
.KVRM3F0 ANOP                                                               KEYT
         AIF   ('&FIELD15' EQ '').KVRM180                                   KEYT
&CNTR1   SETA  15                                                           KEYT
&P1      SETC  '&FIELD7(1)'                                                 KEYT
&P2      SETC  '&FIELD7(2)'                                                 KEYT
&P3      SETC  '&FIELD7(3)'                                                 KEYT
&P4      SETC  '&FIELD7(4)'                                                 KEYT
         AGO   .KVRM500                                                     KEYT
.KVRM500 ANOP                                                               KEYT
         AIF   ('&P1' NE '').KVRM720                                        KEYT
         DC    X'00'               NO VALUE IS SPECIFIED                    KEYT
         AGO   .KVRM730                                                     KEYT
.KVRM720 ANOP                                                               KEYT
&CNTR2   SETA  K'&P1                                                        KEYT
         DC    AL1(&CNTR2)         LENGTH OF VALUE SPECIFIED                KEYT
.KVRM730 ANOP                                                               KEYT
         AIF   ('&P2' EQ '').KVRM900                                        KEYT
         AIF   ('&P2' NE 'N').KVRM750                                       KEYT
         DC    X'01'               N  OP CODE                               KEYT
         AGO   .KVRM800                                                     KEYT
.KVRM750 ANOP                                                               KEYT
         AIF   ('&P2' NE 'O').KVRM760                                       KEYT
         DC    X'02'               O  OP CODE                               KEYT
         AGO   .KVRM800                                                     KEYT
.KVRM760 ANOP                                                               KEYT
         AIF   ('&P2' NE 'M').KVRM770                                       KEYT
         DC    X'03'               M  OP CODE                               KEYT
         AGO   .KVRM800                                                     KEYT
.KVRM770 ANOP                                                               KEYT
         AIF   ('&P2' NE 'X').KVRM780                                       KEYT
         DC    X'04'               X OP CODE                                KEYT
         AGO   .KVRM800                                                     KEYT
.KVRM780 ANOP                                                               KEYT
         MNOTE 8,'INVALID OP SPECIFIED IN FIELDN='                          KEYT
         MEXIT                                                              KEYT
.KVRM800 ANOP                                                               KEYT
         AIF   ('&P3' NE '').KVRM820                                        KEYT
         MNOTE 8,'TO ADDR REQ AND NOT SPECIFIED IN FIELDN='                 KEYT
         MEXIT                                                              KEYT
.KVRM820 ANOP                                                               KEYT
         DC    SL2(&P3)            TO ADDRESS                               KEYT
         AIF   ('&P4' NE '').KVRM830                                        KEYT
         MNOTE 8,'FROM ADDR REQ AND NOT SPECIFIED IN FIELDN='               KEYT
         MEXIT                                                              KEYT
.KVRM830 ANOP                                                               KEYT
         DC    SL2(&P4)            FROM ADDRESS                             KEYT
         DC    AL2(L'&P3)          LENGTH OF TO ADDRESS                     KEYT
.KVRM834 ANOP                                                               KEYT
         AIF   ('&P1' NE '').KVRM840                                        KEYT
         AGO   .KVRM950                                                     KEYT
.KVRM840 ANOP                                                               KEYT
         DC    C'&P1'              VALUE CONSTANT                           KEYT
         AGO   .KVRM950                                                     KEYT
.KVRM900 ANOP                                                               KEYT
         AIF   ('&P3' EQ '').KVRM920                                        KEYT
         MNOTE 8,'MISSING PARMS IN FIELDN= PARAMETER'                       KEYT
         MEXIT                                                              KEYT
.KVRM920 ANOP                                                               KEYT
         AIF   ('&P4' EQ '').KVRM930                                        KEYT
         MNOTE 8,'MISSING PARMS IN FIELDN= PARAMETER'                       KEYT
         MEXIT                                                              KEYT
.KVRM930 ANOP                                                               KEYT
         DC    X'00'               NO OP CODE                               KEYT
         DC    SL2(0)              NO TO ADDR                               KEYT
         DC    SL2(0)              NO FROM ADDR                             KEYT
         DC    SL2(0)              NO TO LENGTH                             KEYT
.KVRM950 ANOP                                                               KEYT
         AIF   (&CNTR1 EQ 1).KVRM320                                        KEYT
         AIF   (&CNTR1 EQ 2).KVRM330                                        KEYT
         AIF   (&CNTR1 EQ 3).KVRM340                                        KEYT
         AIF   (&CNTR1 EQ 4).KVRM350                                        KEYT
         AIF   (&CNTR1 EQ 5).KVRM360                                        KEYT
         AIF   (&CNTR1 EQ 6).KVRM370                                        KEYT
         AIF   (&CNTR1 EQ 7).KVRM380                                        KEYT
         AIF   (&CNTR1 EQ 8).KVRM390                                        KEYT
         AIF   (&CNTR1 EQ 9).KVRM3A0                                        KEYT
         AIF   (&CNTR1 EQ 10).KVRM3B0                                       KEYT
         AIF   (&CNTR1 EQ 11).KVRM3C0                                       KEYT
         AIF   (&CNTR1 EQ 12).KVRM3D0                                       KEYT
         AIF   (&CNTR1 EQ 13).KVRM3E0                                       KEYT
         AIF   (&CNTR1 EQ 14).KVRM3F0                                       KEYT
         AIF   (&CNTR1 EQ 15).KVRM180                                       KEYT
         MEND                                                               KEYT
