         MACRO                                                            KEYVAL
&NAME    KEYVAL &STRING,&TABLE,&PRINT=OFF                                 KEYVAL
         GBLC  &KVRCSEC            CSECT NAME                             KEYVAL
         LCLC  &CSNAME             OUTER CSECT NAME                       KEYVAL
         LCLB  &KVRCSON            LOCAL SWITCH FOR CSECT GENERATION      KEYVAL
.**********************************************************************   KEYVAL
.***                                                                ***   KEYVAL
.***  MACRO  NAME: KEYWORD VALIDATION ROUTINE                       ***   KEYVAL
.***                                                                ***   KEYVAL
.***                                                                ***   KEYVAL
.***  GENERAL FUNCTION: TO VALIDATE A CHARACTER STRING CONTAINING   ***   KEYVAL
.***                    KEYWORDS AND VALUES AND PERFORM REQUESTED   ***   KEYVAL
.***                    OPERATIONS AS SPECIFIED IN THE KEYWORD      ***   KEYVAL
.***                    VALIDATION TABLE DEFINED WITH ONE OR MORE   ***   KEYVAL
.***                    KEYT MACROS.  THIS MACRO EXPANDS TO AN      ***   KEYVAL
.***                    INDEPENDENT CSECT UPON INITIAL INVOCATION   ***   KEYVAL
.***                    AND IS ACCESSED VIA V-TYPE ADDRESSING       ***   KEYVAL
.***                    FOR SUBSEQUENT INVOCATIONS.  THERE ARE 2    ***   KEYVAL
.***                    BASIC PARTS TO THIS MACRO.  THE FIRST PART  ***   KEYVAL
.***                    SETS UP THE APPROPRIATE PARMS BASED UPON    ***   KEYVAL
.***                    THE USER PARAMETERS SUPPLIED.  THE SECOND   ***   KEYVAL
.***                    PART DOES THE STRING MANIPULATION, PERFORMS ***   KEYVAL
.***                    THE REQUESTED FUNCTIONS AND SETS RETURN     ***   KEYVAL
.***                    CODES.                                      ***   KEYVAL
.***                                                                ***   KEYVAL
.***                                                                ***   KEYVAL
.***  ENTRY REGS:   R1                                              ***   KEYVAL
.***  (PART 1)      R2                                              ***   KEYVAL
.***                R3                                              ***   KEYVAL
.***                R4                                              ***   KEYVAL
.***                R5                                              ***   KEYVAL
.***                R6                                              ***   KEYVAL
.***                R7                                              ***   KEYVAL
.***                R8                                              ***   KEYVAL
.***                R9                                              ***   KEYVAL
.***                R10                                             ***   KEYVAL
.***                R11                                             ***   KEYVAL
.***                R12                                             ***   KEYVAL
.***                R13  SAVE AREA                                  ***   KEYVAL
.***                R14                                             ***   KEYVAL
.***                R15                                             ***   KEYVAL
.***                                                                ***   KEYVAL
.***                                                                ***   KEYVAL
.***  ENTRY REGS:   R0   AL4  ADDR OF CHAR STRING                   ***   KEYVAL
.***  (PART 2)      R1   AL4  ADDRESS OF 1ST KEYT ENTRY             ***   KEYVAL
.***                R2                                              ***   KEYVAL
.***                R3                                              ***   KEYVAL
.***                R4                                              ***   KEYVAL
.***                R5                                              ***   KEYVAL
.***                R6                                              ***   KEYVAL
.***                R7                                              ***   KEYVAL
.***                R8                                              ***   KEYVAL
.***                R9                                              ***   KEYVAL
.***                R10                                             ***   KEYVAL
.***                R11                                             ***   KEYVAL
.***                R12                                             ***   KEYVAL
.***                R13  SAVE AREA                                  ***   KEYVAL
.***                R14  RETURN ADDRESS                             ***   KEYVAL
.***                R15  ENTRY ADDRESS                              ***   KEYVAL
.***                                                                ***   KEYVAL
.***  REGISTER USAGE:  R0   WORK                                    ***   KEYVAL
.***                   R1   WORK                                    ***   KEYVAL
.***                   R2   WORK                                    ***   KEYVAL
.***                   R3   CHAR STRING LENGTH                      ***   KEYVAL
.***                   R4   CHAR STRING ADDRESS                     ***   KEYVAL
.***                   R5   WORK                                    ***   KEYVAL
.***                   R6   WORK                                    ***   KEYVAL
.***                   R7   WORK                                    ***   KEYVAL
.***                   R8   WORK                                    ***   KEYVAL
.***                   R9   SAVED RETURN CODE                       ***   KEYVAL
.***                   R10  WORK                                    ***   KEYVAL
.***                   R11  PROGRAM BASE                            ***   KEYVAL
.***                   R12  WORKAREA BASE                           ***   KEYVAL
.***                   R13  OLD SAVEAREA                            ***   KEYVAL
.***                   R14  KEYWORD TABLE BASE                      ***   KEYVAL
.***                   R15  RETURN CODE                             ***   KEYVAL
.***                                                                ***   KEYVAL
.***                                                                ***   KEYVAL
.***                                                                ***   KEYVAL
.***                                                                ***   KEYVAL
.***  AUTHOR: E STEWART                DATE: 05/29/80               ***   KEYVAL
.***                                                                ***   KEYVAL
.***                                                                ***   KEYVAL
.***  ATTRIBUTES: RENT,REUS,REFR                                    ***   KEYVAL
.***                                                                ***   KEYVAL
.***                                                                ***   KEYVAL
.***  CALLED BY: UTILITY FUNCTION                                   ***   KEYVAL
.***                                                                ***   KEYVAL
.***                                                                ***   KEYVAL
.***  MACROS USED: GETMAIN,FREEMAIN                                 ***   KEYVAL
.***                                                                ***   KEYVAL
.***                                                                ***   KEYVAL
.***  ROUTINES CALLED: NONE                                         ***   KEYVAL
.***                                                                ***   KEYVAL
.***                                                                ***   KEYVAL
.***  NORMAL EXIT: BR R14                                           ***   KEYVAL
.***                                                                ***   KEYVAL
.***  EXIT REGS:     R0   AL4  ADDR OF KEYWORD IN CHAR STRING WHERE ***   KEYVAL
.***                           VALIDATION ERROR OCCURED             ***   KEYVAL
.***                 R1   AL4  ADDR OF VALUE IN CHAR STRING WHERE   ***   KEYVAL
.***                           VALIDATION ERROR OCCURED             ***   KEYVAL
.***                 R15       00  KEYWORD(S)VALUE(S) FOUND AND     ***   KEYVAL
.***                               OP(S) PERFORMED                  ***   KEYVAL
.***                           04  KEYWORD(S) FOUND, SOME VALUE NOT ***   KEYVAL
.***                               FOUND IN KEYT                    ***   KEYVAL
.***                           08  A KEYWORD WAS NOT FOUND IN KEYT  ***   KEYVAL
.***                           12  'VALCNT' DID NOT PASS VALIDATION ***   KEYVAL
.***                           16  MORE INPUT EXPECTED, I.E. ONLY   ***   KEYVAL
.***                               BLANKS, COMMENTS, OR ),BLANK WAS ***   KEYVAL
.***                               FOUND. OTHERWISE RC=00 WOULD HAVE***   KEYVAL
.***                               BEEN RETURNED.                   ***   KEYVAL
.***                           20  'TYPE' DID NOT PASS VALIDATION.  ***   KEYVAL
.***                           24  'LEN' DID NOT PASS VALIDATION.   ***   KEYVAL
.***                                                                ***   KEYVAL
.***                                                                ***   KEYVAL
.***  ABEND CODES: NONE (I HOPE)                                    ***   KEYVAL
.***                                                                ***   KEYVAL
.***                                                                ***   KEYVAL
.***  MESSAGES ISSUED: NONE                                         ***   KEYVAL
.***                                                                ***   KEYVAL
.***                                                                ***   KEYVAL
.***                                                                ***   KEYVAL
.***                                                                ***   KEYVAL
.***  DSECTS/MACROS USED: NONE FROM AN EXTERNAL SOURCE              ***   KEYVAL
.***                                                                ***   KEYVAL
.***                                                                ***   KEYVAL
.***  SPECIAL NOTES:                                                ***   KEYVAL
.***                                                                ***   KEYVAL
.***                                                                ***   KEYVAL
.***                                                                ***   KEYVAL
.**********************************************************************   KEYVAL
         AIF   ('&KVRCSEC' NE '').KVRBALR CSECT ALREADY ASSIGNED          KEYVAL
&KVRCSEC SETC  'KVR'.'&SYSNDX'   SET CSECT NAME                           KEYVAL
&KVRCSON SETB  1                   SAY CSECT ASSIGNED THIS PASS           KEYVAL
.KVRBALR ANOP                                                             KEYVAL
         AIF   (N'&SYSLIST(1) EQ  1 AND N'&SYSLIST(2) EQ 1).KVRM010       KEYVAL
         MNOTE 8,'OPERAND SUBLISTS NOT PERMITTED'                         KEYVAL
         MEXIT                                                            KEYVAL
.KVRM010 ANOP                                                             KEYVAL
         AIF   ('&NAME' EQ '').KVRM014                                    KEYVAL
&NAME    DS    0H                  SET LABEL NAME                         KEYVAL
.KVRM014 ANOP                                                             KEYVAL
         AIF   ('&SYSLIST(1)' EQ '(0)' OR '&SYSLIST(1)' EQ '(R0)').KVRMX  KEYVAL
               040           STRING AND LENGTH ALREADY OK                 KEYVAL
         AIF   ('&SYSLIST(1)' EQ '(0)' OR '&SYSLIST(2)' EQ '(R0)').KVRMX  KEYVAL
               020                CHAR STRING ALREADY IN R0               KEYVAL
         AIF   ('&STRING'(1,1) EQ '(').KVRM016 REG NOTATION               KEYVAL
         LA    0,&STRING           GET ADDR OF CHAR STRING                KEYVAL
         AGO   .KVRM020                                                   KEYVAL
.KVRM016 ANOP                                                             KEYVAL
         LR    0,&STRING           GET ADDR OF CHAR STRING                KEYVAL
.KVRM020 ANOP                                                             KEYVAL
         AGO   .KVRM040                                                   KEYVAL
.KVRM040 ANOP                                                             KEYVAL
         AIF   ('&SYSLIST(2)' EQ '(1)' OR '&SYSLIST(2)' EQ '(R1)').KVRMX  KEYVAL
               060                                                        KEYVAL
         AIF   ('&TABLE'(1,1) EQ '(').KVRM050 REG NOTATION                KEYVAL
         LA    1,&TABLE            KEYWORD TABLE ADDRESS                  KEYVAL
         AGO   .KVRM060                                                   KEYVAL
.KVRM050 ANOP                                                             KEYVAL
         LR    1,&TABLE            KEYWORD TABLE ADDRESS                  KEYVAL
.KVRM060 ANOP                                                             KEYVAL
         L     15,=V(&KVRCSEC)     GET CSECT NAME                         KEYVAL
         BALR  14,15               GO TO VALIDATION ROUTINE               KEYVAL
         AIF   (NOT(&KVRCSON)).NOGO TERMINATE IF ALREADY EXPANDED         KEYVAL
         PUSH  USING,PRINT                                                KEYVAL
         AIF   ('&PRINT' EQ 'ON').KVRM070 NO LIST                         KEYVAL
         PRINT OFF                 TURN PRINT OFF                         KEYVAL
         AGO   .KVRM072                                                   KEYVAL
.KVRM070 ANOP                                                             KEYVAL
         PRINT ON,GEN              TURN ON PRINT                          KEYVAL
.KVRM072 ANOP                                                             KEYVAL
&CSNAME  SETC  '&SYSECT'                                                  KEYVAL
&KVRCSEC CSECT                                                            KEYVAL
         USING *,11                SET UP BASE                            KEYVAL
         STM   14,12,12(13)        SAVE REGS                              KEYVAL
         LR    11,15               GET BASE ADDRESS                       KEYVAL
         USING KVDSVR,14           TABLE ADDRESS BASE                     KEYVAL
         USING KVWAVR,12           WORKAREA BASE                          KEYVAL
         GETMAIN R,LV=KVWALNTH     GET WORKAREA                           KEYVAL
         LR    12,1                PUT INTO BASE REG                      KEYVAL
         L     4,20(13)            GET STRING ADDRESS INTO REG 4          KEYVAL
         SR    3,3                 CLEAR WORK REG                         KEYVAL
         ICM   3,3,0(4)            GET STRING LENGTH                      KEYVAL
         LA    4,2(,4)             BUMP OVER STRING LENGTH                KEYVAL
         MVI   KVWAFL1,0           CLEAR FLAG BYTE                        KEYVAL
         MVI   KVWAKWVA,0          CLEAR COUNT BYTE                       KEYVAL
         MVC   KVWASAV1(4*13),20(13) SAVE REGS 0-12                       KEYVAL
         MVC   KVWASAV1+(4*14)(4*2),12(13) SAVE REGS 14-15                KEYVAL
         ST    13,KVWASAV1+(4*13)  SAVE REG 13 FROM CALLER                KEYVAL
KVR004   DS    0H                                                         KEYVAL
         L     14,24(13)           TABLE ADDRESS                          KEYVAL
         XC    0(KVWACLR,12),0(12)   CLEAR WORKAREA                       KEYVAL
         LTR   3,3                 Q. ANY DATA TO SCAN                    KEYVAL
         BP    KVR005              A. YES, CONTINUE AS NORMAL             KEYVAL
         LA    9,16                SET BAD RC                             KEYVAL
         B     KVR900              AND RETURN                             KEYVAL
KVR005   DS    0H                                                         KEYVAL
         SR    2,2                 CLEAR FOR LATER                        KEYVAL
         ST    4,KVWALOC           SAVE STRING LOC                        KEYVAL
         ST    4,KVWAKEY           SAVE STRING LOC                        KEYVAL
         BCTR  3,0                 REDUCE BY ONE                          KEYVAL
         EX    3,KVTR1VR           SEARCH FOR NON BLANK                   KEYVAL
         LA    3,1(,3)             GET ORIG LENGTH                        KEYVAL
         CLM   2,1,KVAX00          Q. ANYTHING FOUND                      KEYVAL
         BNE   KVR006              A. YES, SEE WHAT IT IS                 KEYVAL
         LA    9,16                SET BLANKS RETURN CODE                 KEYVAL
         B     KVR900              RETURN TO CALLER                       KEYVAL
KVR006   DS    0H                                                         KEYVAL
         LR    5,1                 SAVE REG 1                             KEYVAL
         SR    1,4                 GET NEW                                KEYVAL
         SR    3,1                 DATA LENGTH                            KEYVAL
         LR    4,5                 GET NEW LOCATION                       KEYVAL
         CLM   2,1,KVASLASH        Q. COULD THIS BE COMMENT               KEYVAL
         BNE   KVR020              A. NO, CONTINUE                        KEYVAL
         CLI   1(4),C'*'           Q .WAS THIS A COMMENT                  KEYVAL
         BE    KVR008              A. YES, CONTINUE                       KEYVAL
         LA    9,8                 SAY INVALID KEYWORD                    KEYVAL
         B     KVR900              AND RETURN                             KEYVAL
KVR008   DS    0H                  VALIDATE COMMENT                       KEYVAL
         LA    4,2(4)              BUMP OVER /*                           KEYVAL
         BCTR  3,0                 REDUCE COUNT                           KEYVAL
         BCTR  3,0                 REDUCE COUNT                           KEYVAL
KVR010   DS    0H                                                         KEYVAL
         CLI   0(4),C'*'           Q. IS IT REALLY A COMMENT              KEYVAL
         BE    KVR014              A. YES, CONTINUE                       KEYVAL
KVR012   DS    0H                                                         KEYVAL
         LA    4,1(4)              BUMP ADDRESS                           KEYVAL
         BCT   3,KVR010            LOOP THROUGH                           KEYVAL
         LA    9,8                 SET RETURN CODE                        KEYVAL
         B     KVR900              AND RETURN                             KEYVAL
KVR014   DS 0H                                                            KEYVAL
         CLI   1(4),C'/'           Q. IS 2ND CHAR A SLASH                 KEYVAL
         BNE   KVR012              A. NO, CONTINUE SCAN FOR END           KEYVAL
         LA    4,2(4)              BUMP OVER */                           KEYVAL
         BCTR  3,0                 REDUCE COUNT                           KEYVAL
         BCTR  3,0                 REDUCE COUNT                           KEYVAL
         B     KVR005              AND CONTINUE SCAN                      KEYVAL
KVR020   DS    0H                  VALIDATE CHARACTERS FOUND              KEYVAL
         ST    4,KVWALOC           SAVE STRING ADDR                       KEYVAL
         ST    4,KVWAKEY           SAVE STRING ADDR                       KEYVAL
         SR    5,5                 CLEAR FOR KEYWORD COMPARE              KEYVAL
         SR    6,6                 CLEAR FOR KEYWORD COMPARE              KEYVAL
         SR    7,7                 CLEAR FOR KEYWORD COMPARE              KEYVAL
KVR022   DS    0H                                                         KEYVAL
         IC    5,KVLL0001          GET KEYWORD LEN                        KEYVAL
         EX    5,KVCVR             Q. KEYWORD FOUND                       KEYVAL
         BE    KVR080              A. YES,CONTINUE                        KEYVAL
KVR023   DS    0H                                                         KEYVAL
         IC    6,KVVN0001          GET COUNT OF VALUE ENTRIES             KEYVAL
         LA    14,0(14,5)          BUMP OVER VARIABLE KEYWORD             KEYVAL
         LTR   6,6                 Q. ANY MORE VALUES TO DO               KEYVAL
         BZ    KVR028              A. NO, CONTINUE AS IS                  KEYVAL
KVR024   DS    0H                                                         KEYVAL
         IC    7,KVVL0001          LENGTH OF VALUE KEYWORD                KEYVAL
         LA    14,KVVG0001(7,14)   BUMP OVER VALUE ENTRY                  KEYVAL
         BCT   6,KVR024            CONTINUE THRU ALL VALUES               KEYVAL
KVR028   DS    0H                                                         KEYVAL
         LA    14,KVKL0001+1(14)   BUMP OVER KEYWORD ENTRY                KEYVAL
         CLC   KVAFFFF,KVDSVR      Q. LAST ENTRY                          KEYVAL
         BNE   KVR022              A. NO, CONTINUE SCAN                   KEYVAL
         LA    9,8                 SET RETURN CODE                        KEYVAL
         B     KVR900              AND RETURN                             KEYVAL
KVR080   DS    0H                  KEYWORD FOUND                          KEYVAL
         LA    6,1(5,4)            GO TO NEXT BYTE BEYOND KEYWORD         KEYVAL
         CLI   0(6),C'('           Q. IS THIS DELIMITER                   KEYVAL
         BE    KVR082              A. YES, CONTINUE                       KEYVAL
         CLI   0(6),C' '           Q. IS THIS DELIMITER                   KEYVAL
         BE    KVR082              A. YES, CONTINUE                       KEYVAL
         CLI   0(6),C','           Q. IS THIS DELIMITER                   KEYVAL
         BE    KVR082              A. YES, CONTINUE                       KEYVAL
         LR    9,3                 CURRENT LENGTH                         KEYVAL
         SR    9,5                 MINUS KEYWORD EX LENGTH                KEYVAL
         BCTR  9,0                 MINUS ONE                              KEYVAL
         LTR   9,9                 Q. ANY DATA LEFT IN STRING             KEYVAL
         BZ    KVR082              A. NO, JUST CONTINUE NORMALLY          KEYVAL
         SR    6,6                 CLEAR FOR LATER                        KEYVAL
         B     KVR023              ELSE LOOK FOR ANOTHER KEYWORD          KEYVAL
KVR082   DS    0H                                                         KEYVAL
         SR    6,6                 CLEAR WORK REG                         KEYVAL
         ICM   6,3,KVRA0001        GET EXIT ROUTINE ADDR                  KEYVAL
         BZ    KVR084              BRANCH IF NOT SPECIFIED                KEYVAL
         SRDL  6,12                GET REG INTO R6                        KEYVAL
         SLL   6,2                 X 4                                    KEYVAL
         LA    1,KVWASAV1          ADDR OF SAVE AREA                      KEYVAL
         L     6,0(6,1)            GET CONTENTS OF RTN BASE REG           KEYVAL
         SRL   7,20                SHIFT TO LOWER END                     KEYVAL
         LA    7,0(7,6)            GET ROUTINE ADDRESS                    KEYVAL
         ST    7,KVWARTN           SAVE RTN ADDRESS                       KEYVAL
KVR084   DS    0H                                                         KEYVAL
         SR    6,6                 CLEAR WORK REG                         KEYVAL
         ICM   6,3,KVRP0001        GET EXIT ROUTINE PARM                  KEYVAL
         BZ    KVR088              BRANCH IF NOT SPECIFIED                KEYVAL
         SRDL  6,12                GET REG INTO R6                        KEYVAL
         SLL   6,2                 X 4                                    KEYVAL
         LA    1,KVWASAV1          ADDR OF SAVE AREA                      KEYVAL
         L     6,0(6,1)            GET CONTENTS OF PARM BASE REG          KEYVAL
         SRL   7,20                SHIFT TO LOWER END                     KEYVAL
         LA    7,0(7,6)            GET PARM ADDRESS                       KEYVAL
         ST    7,KVWAPRM           SAVE PARM ADDRESS                      KEYVAL
KVR088   DS    0H                                                         KEYVAL
         LA    4,1(5,4)            GO TO NEXT BYTE BEYOND KEYWORD         KEYVAL
         SR    3,5                 REDUCE STRING COUNT                    KEYVAL
         BCTR  3,0                 REDUCE STRING COUNT                    KEYVAL
         CLI   0(4),C'('           Q. VALUE(S) SPECIFIED                  KEYVAL
         BE    KVR110              A. YES, CONTINUE                       KEYVAL
         CLI   KVVN0001,0          Q. ANY VALUES REQUIRED                 KEYVAL
         BNE   KVR090              A. NO, JUST RETURN                     KEYVAL
         SR    9,9                 SET ZERO RETURN CODE                   KEYVAL
         B     KVR900              AND RETURN                             KEYVAL
KVR090   DS    0H                                                         KEYVAL
         MVI   KVWAKWVA,0          CLEAR COUNT                            KEYVAL
         B     KVR172              GO PROCESS THIS KEYWORD                KEYVAL
KVR110   DS    0H                  MOVE ALL VALUES TO LOCAL STORAGE       KEYVAL
         SR    1,1                 CLEAR FOR LATER                        KEYVAL
         MVI   KVWAKWVA,0          CLEAR COUNT                            KEYVAL
         BCTR  3,0                 REDUCE COUNT                           KEYVAL
         LA    4,1(4)              BUMP TO NEXT BYTE                      KEYVAL
         CLI   0(4),C')'           Q. NULL KEYWORDS                       KEYVAL
         BNE   KVR120              A. NO, CONTINUE NORMALLY               KEYVAL
         B     KVR140              GO PROCESS NULL ENTRY                  KEYVAL
KVR120   DS    0H                                                         KEYVAL
         SR    1,1                 CLEAR FOR LATER                        KEYVAL
         CLI   0(4),C''''          Q. QUOTED STRING FOR THIS VALUE        KEYVAL
         BNE   KVR124              A. NO, DONT SET FLAG                   KEYVAL
         MVI   KVWAQUO,1           SAY IN QUOTE MODE                      KEYVAL
         LA    4,1(,4)             BUMP OVER QUOTE                        KEYVAL
         BCTR  3,0                 REDUCE STRING COUNT                    KEYVAL
KVR124   DS    0H                                                         KEYVAL
         LA    2,KVWATMP           ADDR OF TEMP WORK AREA                 KEYVAL
         LR    5,4                 SAVE OLD VALUES LOCATION               KEYVAL
         ST    5,KVWALOC           SAVE STRING ADDR                       KEYVAL
KVR130   DS    0H                                                         KEYVAL
         CLI   0(4),C','           Q. COMMA DELIMITER                     KEYVAL
         BE    KVR140              A. YES, SAVE THIS KEYWORD              KEYVAL
         CLI   0(4),C')'           Q. TERMINATING DELIMITER               KEYVAL
         BE    KVR140              A. YES, PROCESS END KEYWORD VALUES     KEYVAL
         CLI   0(4),C''''          Q. END OF QUOTED STRING                KEYVAL
         BNE   KVR134              A. NO, CONTINUE                        KEYVAL
         LA    4,1(,4)             BUMP ADDRESS                           KEYVAL
         BCTR  3,0                 REDUCE COUNT                           KEYVAL
         LA    1,1(,1)             ADD 1 FOR LATER STRING MOVE            KEYVAL
         CLI   0(4),C''''          Q. REALLY END OF STRING                KEYVAL
         BE    KVR134              A. NO, NOT YET JUST DOUBLE QUOTES      KEYVAL
         MVI   KVWAQUO,0           RESET QUOTE MODE FLAG                  KEYVAL
         B     KVR130              AND CONTINUE                           KEYVAL
KVR134   DS    0H                                                         KEYVAL
         MVC   0(1,2),0(4)         SAVE THIS BYTE                         KEYVAL
         LA    2,1(,2)             BUMP WORK BYTE                         KEYVAL
         LA    4,1(4)              GO TO NEXT BYTE                        KEYVAL
         BCT   3,KVR130            CONTINUE SCAN                          KEYVAL
         LA    9,4                 SET RETURN CODE                        KEYVAL
         B     KVR900              AND RETURN                             KEYVAL
KVR140   DS    0H                  PROCESS FOUND VALUE                    KEYVAL
         CLI   KVWAQUO,0           Q. ARE WE IN QUOTE MODE                KEYVAL
         BNE   KVR134              A. YES, IGNORE OTHER DELIMITERS        KEYVAL
         LR    6,4                 SAVE NEW ADDR                          KEYVAL
         SR    6,5                 GET VALUE LENGTH                       KEYVAL
         SR    6,1                 SUBTRACT ANY QUOTED STRING BYTES       KEYVAL
         SR    5,5                 CLEAR WORK REG                         KEYVAL
         ICM   5,1,KVWAKWVA        GET WORK AREA COUNT                    KEYVAL
         BNZ   KVR146              BRANCH IF ALREADY SOME IN THERE        KEYVAL
         LA    8,KVWAKWVA+1        GET NEXT LOC ADDRESS                   KEYVAL
         B     KVR148              AND CONTINUE                           KEYVAL
KVR146   DS    0H                  LOOK FOR VALUES END LOCATION           KEYVAL
         LA    8,KVWAKWVA+1        GET START ADDRESS                      KEYVAL
         SR    7,7                 CLEAR WORK REG                         KEYVAL
         ICM   7,1,KVWAKWVA+1      GET LENGTH OF LAST ONE                 KEYVAL
KVR147   DS    0H                                                         KEYVAL
         LA    8,1(7,8)            GO TO NEXT SLOT                        KEYVAL