         PRINT GEN
         MACRO
         REQU  &A,&B
         LCLA  &I,&J
         AIF   (T'&A EQ 'N' AND T'&B EQ 'N').OK
         MNOTE 8,'INVALID OPERAND(S), ALL REGS EQUATED'
&J       SETA  15
         AGO   .IN
.OK      ANOP
&I       SETA  &A
&J       SETA  &B
.IN      ANOP
R&I      EQU   &I
&I       SETA  &I+1
         AIF   (&I LE &J).IN
         MEND
         SPACE 5
         MACRO
&NAME    DEFSW &SW,&NAMS,&TYPE=
         GBLC  &SWT(10),&TNAMS(80)
         GBLA  &PT,&PTX,&UNDSW,&DEFSWK
         LCLA  &PT0,&NUM
         LCLA  &PT1,&PT2,&SUB,&SWN
.*
.*         MACRO TO GENERATE SWITCH CONSTANTS AND EQUATES
.*         WITH A MAXIMUM OF 8 EQUATES PER SWITCH CONSTANT
.*
         AIF   (T'&SW EQ 'O').GEN
&NUM     SETA  1
         AIF   ('&TYPE' EQ 'I').TI
&NUM     SETA  N'&NAMS
.TI      ANOP
&PT1     SETA  1
.LOP     AIF   (&PT1 GT &PT).NFND
         AIF   ('&SWT(&PT1)' EQ '&SW').FND
&PT1     SETA  &PT1+1
         AGO   .LOP
.FND     ANOP
&PTX     SETA  &PT1
&PT1     SETA  (&PTX-1)*8+1
&PT2     SETA  &PT1+7
.LOP2    AIF   ('&TNAMS(&PT1)' EQ '').END
&PT1     SETA  &PT1+1
         AIF   (&PT1 LE &PT2).LOP2
         AGO   .ER2
.END     ANOP
&PT1     SETA  &PT1-&PT2+8
         AIF   (&PT1+&NUM GT 9).ER2
&PT0     SETA  &PT1-1
         AGO   .LOOP
.NFND    ANOP
&PT      SETA  &PT+1
         AIF   (&PT GT 10).ER1          TOO MANY SWITCH CONSTANTS
         AIF   (&NUM GT 8).ER2          TOO MANY ASSOCIATED NAMES
&PTX     SETA  &PT
.*
.*
&PT1     SETA  1
.LOOP    ANOP
.*
&SUB     SETA  &PT1+(&PTX-1)*8
&TNAMS(&SUB) SETC '&NAMS(&PT1-&PT0)'
&DEFSWK  SETA  &DEFSWK+1
.*
.*
&PT1     SETA  &PT1+1
         AIF   (&PT1-&PT0 LE &NUM).LOOP
.*         END OF EQUATING LOOP
&SWT(&PTX) SETC '&SW'
         MEXIT
.*
.*
.*
.ER1     MNOTE 8,'TOO MANY SWITCH CONSTANTS'
         MEXIT
.ER2     MNOTE 8,'TOO MANY INTERNAL SWITCHES'
         MEXIT
.GEN     AIF   (&PT EQ 0).NOGEN
         SPACE 3
         MNOTE *,'  &DEFSWK SWITHES IN &PT BYTES DEFINED'
         AIF   (&UNDSW EQ 0).NUN
&PT2     SETA  (&UNDSW+7)/8
         MNOTE *,'  &UNDSW IMPLICIT SWITCHES IN &PT2 BYTES DEFINED'
         AIF   ('&TYPE' EQ 'I').NUN
         MNOTE 4,'*** IMPLICITLY DEFINED SWITHES'
.NUN     ANOP
&PT2     SETA  1
         AIF   (T'&NAME EQ 'O').LOOP1
&NAME    DS    0XL&PT
.LOOP1   ANOP
&SWN     SETA  1
&PT1     SETA  1
         SPACE 3
&SWT(&PT2)  DC X'00'
.LOOP2   ANOP
&SUB     SETA  &PT1+(&PT2-1)*8
         AIF   ('&TNAMS(&SUB)' EQ '').DUN
&TNAMS(&SUB)  EQU  &SWN
&SWN     SETA  &SWN*2
&PT1     SETA  &PT1+1
         AIF   (&PT1 LE 8).LOOP2
.DUN     ANOP
&PT2     SETA  &PT2+1
         AIF   (&PT2 LE &PT).LOOP1
         SPACE 3
         MEXIT
.NOGEN   MNOTE *,'***  NO SWITCHES TO BE GENERATED'
         SPACE 2
         MEND
         SPACE 5
         MACRO
&NAME    CNSRV &R,&TYPE
         LCLA  &TST1
         LCLC  &RR
&RR      SETC '&R'                SET &RR
         AIF   ('&TYPE' EQ 'R').B7
         AIF   (K'&R NE 0).B1
         MNOTE *,'***  REGISTER 13 ASSUMED'
         AGO   .B2
.*
.B1      AIF   (&R NE 13).B3
         AGO   .B2
.*
.B3      AIF   ((&R NE 0) AND (&R NE 14) ).B4
.*
         MNOTE 4,'*** REGISTER IS 0 OR 14,  13 ASSUMED'
.B2      ANOP
&TST1    SETA  1                  FORCE R13
.*
.B4      DS    0H
         USING *,15
&NAME    SAVE (14,12),T,*
.*
         AIF   ('&TYPE' EQ 'R' ).B9
         AIF   ('&RR' EQ '15' OR &TST1 EQ 1).B5
.*
*
         DROP  15
         BALR  &RR,0      ESTABLISH BASE REGISTER
         USING *,&RR
.B5      CNOP  2,4  ALIGNMENT FOR SAVE AREA
         ST    13,*+22+4   ESTABLISH REVERSE CHAIN IN THIS SAVE AREA
         LR    14,13
         LA    13,*+16
.*                                TEST FOR R13 OR NOT
         AIF   (&TST1 EQ 0).B6    &TST1 NOT SET, NOT R13
.*
         DROP  15
         USING *+12,13            ESTABLISH BASE REGISTER
.*
.B6      ST    13,8(0,14) ESTABLISH FWD CHAIN IN PREVIOUS SAVE AREA
         L     14,12(0,14)  RESTORE REGISTER 14
         B     *+72+4  BRANCH AROUND SAVE AREA
         DC    18F'0'      SAVE AREA
*
         MEXIT
.*
.*             RE-ENTRANT CODING
.*
.B7      AIF   (K'&R NE 0).B8
         MNOTE *,'*** REGISTER 12 ASSUMED'
&RR      SETC  '12'
         AGO   .B4
.*
.B8      AIF   ( (&R GT 1) AND (&R NE 14) AND (&R NE 13) ).B4
         MNOTE 4,'*** REGISTER IS 0,1,13, OR 14;  12 ASSUMED'
&RR      SETC  '12'
         AGO   .B4
.*
*              GET SPACE FOR SAVE AREA
.B9      GETMAIN  R,LV=72
*
         LR    14,13   SAVE ADDRESS OF PREVIOUS SAVE AREA
         ST    13,4(0,1) ESTABLISH REVERSE CHAIN IN THIS SAVE AREA
         ST    1,8(0,13)  ESTABLISH FWD CHAIN IN PREVIOUS SAVE AREA
         LR    13,1      POINT TO NEW SAVE AREA
         AIF   (&RR EQ 15).B10
         DROP  15
         BALR  &RR,0        ESTABLISH BASE REGISTER
         USING *,&RR
.B10     LM    14,1,12(14)  RESTORE 14,15,0,1
*
         MEND
         SPACE 5
         MACRO
&NAME    BOPEN &DCB,&ADR,&DRSDEEK=1
&NAME    IHBINNRA &DCB
         TM    48(1),X'10' .            TEST IF DCB OPEN
         AIF   ('&ADR' EQ '&ADR(1)').NR
         BCR   &DRSDEEK,&ADR(1)
         MEXIT
.NR      BC    &DRSDEEK,&ADR
         MEND
         SPACE 5
         MACRO
&NAME    BNOPEN &DCB,&ADR
&NAME    BOPEN &DCB,&ADR,DRSDEEK=8
         MEND
         SPACE 5
         MACRO
&NAME    SWT   &OP,&SW
         GBLA  &UNDSW
         GBLC  &SWT(10),&TNAMS(80)
         GBLC  &TEMPOX
         GBLA  &TEMPCNT
         GBLA  &PT,&PTX
         GBLB  &BADSW
         LCLC  &SWITCH
         LCLC  &OPC,&SG,&OFF
         LCLA  &PT1,&PT2,&SUB,&SWPT,&OLD
         LCLB  &SUBSW
         ACTR  1000
.*
.*         THE FOLLOWING ROUTINE SETS UP THE OP-CODE, AND SIGN CHAR.
.*         FOR THE OUTPUT.   "OI,XI,TM,NI", SIGN="+,-"
.*
&SG      SETC  '+'
         AIF   ('&OP' NE 'OFF').N1
&OFF     SETC  'X''FF''-'
&SG      SETC  '-'
&OPC     SETC  'NI'
         AGO   .OPEX
.N1      AIF   ('&OP' NE 'ON').N2
&OPC     SETC  'OI'
         AGO   .OPEX
.N2      AIF   ('&OP' NE 'FLIP').N3
&OPC     SETC  'XI'
         AGO   .OPEX
.N3      AIF   ('&OP' NE 'TEST').ER2
&OPC     SETC  'TM'
         AGO   .OPEX
.ER2     SPACE 1
         MNOTE 4,'*** UNDEFINED OPTION, ''TEST'' USED'
&OPC     SETC  'TM'
.OPEX    ANOP
.*
.*
&PT2     SETA  &PT*8
         AIF   (&PT EQ 0).ER1           NO SWITCHES DEFINED
.*
&SUB     SETA  1
.LOOP1   ANOP                           COME HERE FOR EACH SWITCH
&PT1     SETA  1
.LOOP    ANOP                           COME HERE DURING SEARCH LOOP
         AIF   ('&SW(&SUB)' EQ '&TNAMS(&PT1)').FND
&PT1     SETA  &PT1+1
         AIF   (&PT1 LE &PT2).LOOP
         AIF   (&TEMPCNT GT 0 AND &TEMPCNT LT 8).TOK
&TEMPCNT SETA  0
&TEMPOX  SETC  'TSWT'.'&SYSNDX'
.TOK     ANOP
&TEMPCNT SETA  &TEMPCNT+1
&SWITCH  SETC  '&SW(&SUB)'
         DEFSW &TEMPOX,&SWITCH,TYPE=I
&SWPT    SETA  &PTX
&UNDSW   SETA  &UNDSW+1
         AGO   .UND
.FND     ANOP
&SWPT    SETA  (&PT1+7)/8
.UND     ANOP
         AIF   (&SUBSW).SINGLE
         AIF   (&OLD NE 0).NFRST        IF -0-, THEN FIRST TIME THRU
&OLD     SETA  &SWPT
         AGO   .NXT
.NFRST   AIF   (&SWPT EQ &OLD).NXT
         SPACE 1
         MNOTE *,'*** SWITHCES NOT FROM SAME GROUP'
.INDIV   MNOTE *,'*** OUTPUT INDIVIDUAL INSTRUCTIONS'
         AIF   ('&OPC' NE 'TM').SP  OK IF NOT SWT TEST,.....
         MNOTE 8,'*** "TEST" USED, ERROR WILL OCCUR'
.SP      SPACE 1
&SUBSW   SETB  1
&SUB     SETA  &SUB-1                   DON-T OUTPUT LAST SWITCH
         AGO   .OUT                     GO OUTPUT ALL PREVIOUS SWITHCES
.NXT     ANOP
         AIF   (&SUB EQ N'&SW).OUT      FINISHED, OUTPUT ALL SWITHCES
&SUB     SETA  &SUB+1
         AIF   (&SUB LE 8).LOOP1
         SPACE 1
         MNOTE *,'*** MORE THAN 8 SWITHCES'
         AGO   .INDIV
.*
.SINGLE  ANOP
         &OPC  &SWT(&SWPT),&OFF.&SW(&SUB)
.AAA     ANOP
&SUB     SETA  &SUB+1
         AIF   (&SUB LE N'&SW).LOOP1
         MEXIT
.*
.*
.*         ROUTINE TO OUTPUT ARRAY SWITCH INSTRUCTIONS
.*
.OUT     ANOP
         AIF   (&SUB EQ 1).ONE
         AIF   (&SUB EQ 2).TWO
         AIF   (&SUB EQ 3).THREE
         AIF   (&SUB EQ 4).FOUR
         AIF   (&SUB EQ 5).FIVE
         AIF   (&SUB EQ 6).SIX
         AIF   (&SUB EQ 7).SEVEN
.EIGHT   ANOP
&NAME    &OPC  &SWT(&OLD),&OFF&SW(1)&SG&SW(2)&SG&SW(3)&SG&SW(4)&SG&SW(5X
               )&SG&SW(6)&SG&SW(7)&SG&SW(8)
         AGO   .EXIT
.SEVEN   ANOP
&NAME    &OPC  &SWT(&OLD),&OFF&SW(1)&SG&SW(2)&SG&SW(3)&SG&SW(4)&SG&SW(5X
               )&SG&SW(6)&SG&SW(7)
         AGO   .EXIT
.SIX     ANOP
&NAME    &OPC  &SWT(&OLD),&OFF&SW(1)&SG&SW(2)&SG&SW(3)&SG&SW(4)&SG&SW(5X
               )&SG&SW(6)
         AGO   .EXIT
.FIVE    ANOP
&NAME    &OPC  &SWT(&OLD),&OFF&SW(1)&SG&SW(2)&SG&SW(3)&SG&SW(4)&SG&SW(5X
               )
         AGO   .EXIT
.FOUR    ANOP
&NAME    &OPC  &SWT(&OLD),&OFF&SW(1)&SG&SW(2)&SG&SW(3)&SG&SW(4)
         AGO   .EXIT
.THREE   ANOP
&NAME    &OPC  &SWT(&OLD),&OFF&SW(1)&SG&SW(2)&SG&SW(3)
         AGO   .EXIT
.TWO     ANOP
&NAME    &OPC  &SWT(&OLD),&OFF&SW(1)&SG&SW(2)
         AGO   .EXIT
.ONE     ANOP
&NAME    &OPC  &SWT(&OLD),&OFF&SW(1)
.*
.EXIT    AIF   (&SUBSW).EXITS
         MEXIT
.EXITS   ANOP
&SUB     SETA  &SUB+1
         AGO   .SINGLE
.ER1     SPACE 1
         MNOTE 8,'*** NO SWITCHES DEFINED YET'
         AIF   (&BADSW).ER1A
         MNOTE *,'   NOTE THAT ALL SWITCHES MUST BE DEFINED IN A'
         MNOTE *,'   ''DEFSW'' MACRO AT START OF PROGRAM, AND DUMPED'
         MNOTE *,'   WHERE DESIRED BY ''DEFSW'' WITH NO OPERANDS'
         SPACE 1
&BADSW   SETB  1
.ER1A    ANOP
&NAME    NOP   0
         MEND
         SPACE 5
         MACRO
&NAME    PRINTA &ARG,&ARG2,&ARGL
         GBLB  &IDSVCSW              INVERSE INTERNAL &DSVCSW
         GBLB  &DRSEROR
         LCLA  &PRINTS
         LCLC  &AB,&EX,&RET
         LCLC  &NAM
         LCLA  &CNT,&QUOTS,&KNT,&PT
         LCLC  &LQ
         LCLA  &BRKNT
&PRINTS  SETA  0
&EX      SETC  'PRINTA'
&LQ      SETC  'L'''
         AIF   (T'&ARG EQ 'O').NOOP
         AIF   ('&ARG'(1,1) NE '''').ER1
&CNT     SETA  K'&ARG-2
&KNT     SETA  &CNT
&PT      SETA  2
.B2      AIF   ('&ARG'(&PT,1) NE '''').B1
&QUOTS   SETA  &QUOTS+1
.B1      ANOP
&PT      SETA  &PT+1
&CNT     SETA  &CNT-1
         AIF   (&CNT NE 0).B2
&QUOTS   SETA  &QUOTS/2
&KNT     SETA  &KNT-&QUOTS
         AIF   (NOT &IDSVCSW).ND1
&NAME    L     15,=V(ERBUF) -        ADDRESS OF OUTPUT BUFFER
         BCTR  15,0
         MVC   &PRINTS.(&KNT,15),=C&ARG
         AGO   .D1
.ND1     ANOP
         AIF   (&KNT EQ 1).MOVE1
         AIF   (&DRSEROR).INL1
&NAME    MVC   ERBUF-1+&PRINTS.(&KNT),=C&ARG
         AGO   .INL1A
.INL1    ANOP
&NAME    MVC   ERBUF-1+&PRINTS.(&KNT),*+10
&BRKNT   SETA  ((&KNT+1)/2)*2
         B     *+4+&BRKNT
         DC    C&ARG
.INL1A   ANOP
         AGO   .MOVEM1
.MOVE1   ANOP
&NAME    MVI   ERBUF-1+&PRINTS,C&ARG
.MOVEM1  ANOP
.D1      ANOP
         AIF   (T'&ARG2 EQ 'O').OLDV
         AIF   (T'&ARGL EQ 'O').NOLEN
         AIF   (NOT &IDSVCSW).ND2
         MVC   &KNT+1(&ARGL,15),&ARG2
         AGO   .D2
.ND2     MVC   ERBUF+1+&KNT.(&ARGL),&ARG2
.D2      AGO   .OLDV
.NOLEN   AIF   (NOT &IDSVCSW).ND3
         MVC   &KNT+1(&LQ&ARG2,15),&ARG2
         AGO   .D3
.ND3     MVC   ERBUF+1+&KNT.(&LQ&ARG2),&ARG2
.D3      ANOP
.OLDV    ANOP
         AIF   (NOT &IDSVCSW).ND4
&NAM     L     15,=V(&EX) -          ADDRESS OF ROUTINE
&EX      SETC  '0(0,15)'
&NAM     SETC  ''
.ND4     ANOP
&NAM     BAL   14,&EX
         MEXIT
.ER1     SPACE 1
         MNOTE 4,'*** ILLEGAL OPERAND TO PRINTA(F) - &ARG'
         MNOTE *,'*** NO OPERAND ASSUMED'
         SPACE 1
.NOOP    ANOP
&NAM     SETC  '&NAME'
         AGO   .OLDV
         SPACE 5
         MEND
         SPACE 5
         MACRO
&NAME    ERROR &R,&ARG,&ARG2,&ARGL
         GBLB  &IDSVCSW                 INVERSE INTERNAL &DSVCSW
         GBLB  &DRSEROR
         LCLC  &AB,&EX,&RET
         LCLA  &CNT,&QUOTS,&KNT,&PT
         LCLC  &LQ
         LCLA  &BRKNT
         AIF   ('&R' EQ 'INLINE').INL
         AIF   ('&R' EQ 'NINLINE').NINL
&LQ      SETC  'L'''
         AIF   ('&ARG'(1,1) NE '''').B4
&CNT     SETA  K'&ARG-2
&KNT     SETA  &CNT
&PT      SETA  2
.B2      AIF   ('&ARG'(&PT,1) NE '''').B1
&QUOTS   SETA  &QUOTS+1
.B1      ANOP
&PT      SETA  &PT+1
&CNT     SETA  &CNT-1
         AIF   (&CNT NE 0).B2
&QUOTS   SETA  &QUOTS/2
&KNT     SETA  &KNT-&QUOTS
         AIF   (NOT &IDSVCSW).ND1
&NAME    L     15,=V(ERBUF) -           ADDRESS OF THE OUTPUT BUFFER
         MVC   9(&KNT,15),=C&ARG
         AGO   .D1
.ND1     ANOP
         AIF   (&DRSEROR OR '&R(3)' EQ 'I').INLA
&NAME    MVC   ERBUF+9(&KNT),=C&ARG
         AGO   .INL1
.INLA    ANOP
&NAME    MVC   ERBUF+9(&KNT),*+10
&BRKNT   SETA  ((&KNT+1)/2)*2
         B     *+4+&BRKNT
         DC    C&ARG
.INL1    ANOP
.D1      ANOP
         AIF   (T'&ARG2 EQ 'O').OLDV
         AIF   (T'&ARGL EQ 'O').NOLEN
         AIF   (NOT &IDSVCSW).ND2
         MVC   &KNT+10(&ARGL,15),&ARG2
         AGO   .D2
.ND2     MVC   ERBUF+10+&KNT.(&ARGL),&ARG2
.D2      AGO   .OLDV
.NOLEN   AIF   (NOT &IDSVCSW).ND3
         MVC   &KNT+10(&LQ&ARG2,15),&ARG2
         AGO   .D3
.ND3     MVC   ERBUF+10+&KNT.(&LQ&ARG2),&ARG2
.D3      ANOP
.OLDV    ANOP
&EX      SETC  'EPRINT+4'
&RET     SETC  'EPRINT+8'
&AB      SETC  'EPRINT'
         AIF   (NOT &IDSVCSW).ND4
&EX      SETC  '4(0,15)'
&RET     SETC  '8(0,15)'
&AB      SETC  '0(0,15)'
         L     15,=V(EPRINT) -          ADDRESS OF PUT ROUTINE
.ND4     AIF   ('&R(1)' NE '').OPT
.EX      BAL   14,&EX -                 ERROR WITH NORMAL EXIT
         AGO   .CODE
.OPT     AIF   ('&R(1)' EQ 'E').EX
         AIF   ('&R(1)' EQ 'R').RET
         AIF   ('&R(1)' EQ 'A').AB
         MNOTE 2,'ILLEGAL CODE CHCARACTER, ''E'' ASSUMED'
         AGO   .EX
.RET     BAL   14,&RET -                RETURN
         AGO   .CODE
.AB      BAL   14,&AB -                 ABEND
.CODE    AIF   ('&R(2)' EQ '').COD      OUTPUT '0'
         DC    AL1(&R(2))
         MEXIT
.COD     DC    AL1(0)
         MEXIT
.INL     ANOP
&DRSEROR SETB  1
         MEXIT
.NINL    ANOP
&DRSEROR SETB  0
         MEXIT
.B4      MNOTE 4,'ILLEGAL ARGUMENT TO ERROR - &ARG'
         MEND
         SPACE 5
          MACRO
&NAME    GOBCK &RC,&TYPE
         LCLB  &SWITCH
         LCLC &RCRC
&RCRC   SETC   '0'                INITIALIZE &RCRC
.*
&NAME    L     13,4(0,13) -       RESTORE REGISTER 13
.*
         AIF   ('&TYPE' NE 'R').A02
         AIF   ('&RC' NE '(15)' ).A01
.*
&SWITCH  SETB  1
         ST    15,16(0,13)  STORE REGISTER 15 IN SAVE AREA
.*             RE-ENTRANT RELEASE OF SAVE AREA
*
.A01     L     1,8(0,13) POINT TO FORWARD SAVE AREA AND FREE IT
         FREEMAIN  R,LV=72,A=(1)     FREE SAVE AREA
*
.A02     AIF   (K'&RC EQ 0).A1    OPERAND OMITTED, ZERO OK
&RCRC    SETC '&RC'               RESET &RCRC
.*
         AIF   ('&RC'(1,1) EQ '(' AND NOT &SWITCH).A2  OPERAND (15) ?
.A1      ANOP                     NO, COMPILE TYPE 1
         LM    14,12,12(13) -     RESTORE THE REGISTERS
         MVI   12(13),X'FF' -     SET RETURN INDICATION
         AIF   (&SWITCH).A15
         LA   15,&RCRC  -             LOAD RETURN CODE
.A15     BR    14 -               RETURN
*
         MEXIT
.*             COMPILE TYPE 2 GOBCK
.A2      AIF   ('&RC' EQ '(15)' ).A3
         MNOTE 8,'***   INVALID REGISTER SPECIFICATION, MUST BE (15)'
.A3      ANOP
         L     14,12(0,13) -      RESTORE REGISTER 14
         LM    0,12,20(13) -      RESTORE REGISTERS 0-12
         MVI   12(13),X'FF' -     SET RETURN INDICATION
         BR    14 -               RETURN
*
         MEND
         SPACE 5
         MACRO
&NAME    PRINTF &ARG,&ARG2,&ARGL
         GBLB  &IDSVCSW
         GBLB  &DRSEROR
         GBLA  &PRINTFS
         LCLA  &PRINTS
         LCLC  &AB,&EX,&RET
         LCLC  &NAM,&LQ
         LCLA  &CNT,&QUOTS,&KNT,&PT
         LCLA  &BRKNT
&PRINTS  SETA  &PRINTFS
&EX      SETC  'PRINTF'
&LQ      SETC  'L'''
         AIF   (T'&ARG EQ 'O').NOOP
         AIF   ('&ARG'(1,1) NE '''').ER1
&CNT     SETA  K'&ARG-2
&KNT     SETA  &CNT
&PT      SETA  2
.B2      AIF   ('&ARG'(&PT,1) NE '''').B1
&QUOTS   SETA  &QUOTS+1
.B1      ANOP
&PT      SETA  &PT+1
&CNT     SETA  &CNT-1
         AIF   (&CNT NE 0).B2
&QUOTS   SETA  &QUOTS/2
&KNT     SETA  &KNT-&QUOTS
         AIF   (NOT &IDSVCSW).ND1
&NAME    L     15,=V(ERBUF) -        ADDRESS OF OUTPUT BUFFER
         BCTR  15,0
         MVC   &PRINTS.(&KNT,15),=C&ARG
         AGO   .D1
.ND1     ANOP
         AIF   (&KNT EQ 1).MOVE1
         AIF   (&DRSEROR).INL1
&NAME    MVC   ERBUF-1+&PRINTS.(&KNT),=C&ARG
         AGO   .INL1A
.INL1    ANOP
&NAME    MVC   ERBUF-1+&PRINTS.(&KNT),*+10
&BRKNT   SETA  ((&KNT+1)/2)*2
         B     *+4+&BRKNT
         DC    C&ARG
.INL1A   ANOP
         AGO   .MOVEM1
.MOVE1   ANOP
&NAME    MVI   ERBUF-1+&PRINTS,C&ARG
.MOVEM1  ANOP
.D1      ANOP
         AIF   (T'&ARG2 EQ 'O').OLDV
         AIF   (T'&ARGL EQ 'O').NOLEN
         AIF   (NOT &IDSVCSW).ND2
         MVC   &KNT+1(&ARGL,15),&ARG2
         AGO   .D2
.ND2     MVC   ERBUF+1+&KNT.(&ARGL),&ARG2
.D2      AGO   .OLDV
.NOLEN   AIF   (NOT &IDSVCSW).ND3
         MVC   &KNT+1(&LQ&ARG2,15),&ARG2
         AGO   .D3
.ND3     MVC   ERBUF+1+&KNT.(&LQ&ARG2),&ARG2
.D3      ANOP
.OLDV    ANOP
         AIF   (NOT &IDSVCSW).ND4
&NAM     L     15,=V(&EX) -          ADDRESS OF ROUTINE
&EX      SETC  '0(0,15)'
&NAM     SETC  ''
.ND4     ANOP
&NAM     BAL   14,&EX
         MEXIT
.ER1     SPACE 1
         MNOTE 4,'*** ILLEGAL OPERAND TO PRINTA(F) - &ARG'
         MNOTE *,'*** NO OPERAND ASSUMED'
         SPACE 1
.NOOP    ANOP
&NAM     SETC  '&NAME'
         AGO   .OLDV
         SPACE 5
         MEND
         SPACE 5
         MACRO
&NAME    MINIT &CSPEC=0,&LSPEC=0,&CODSPEC=0,&ADSPEC=0
         GBLA  &CH,&L,&CO,&AD
&CH      SETA  &CSPEC
&L       SETA  &LSPEC
&CO      SETA  &CODSPEC
&AD      SETA  &ADSPEC
         SPACE 3
         MNOTE *,'      START OF SEQUENCED TABLE'
         SPACE 1
&NAME    DS    0F
         MEND
         SPACE 5
         MACRO
&NAME    MNEM  &ARG,&CODE
         GBLA  &CH,&L,&CO,&AD
         GBLC  &NEW01,&OLD01
         LCLC  &NW
         LCLA  &LEN
         AIF   (T'&ARG EQ 'O').END
&LEN     SETA  K'&ARG-2
&NEW01   SETC  '&ARG'(2,&LEN)
&NW      SETC  '&NEW01'.'               '
&NW      SETC  '&NW'(1,&CH)
         AIF   ('&NW' GT '&OLD01').OK
         SPACE 1
         MNOTE 4,'*** OUT OF SEQUENCE'
         SPACE 1
.OK      ANOP
&OLD01   SETC  '&NW'
&NAME    DC    CL&CH&ARG
         AIF   (&L EQ 0).A1
         DC    AL&L.(&LEN)
.A1      AIF   (&CO EQ 0).A2
         DC    AL&CO.(&CODE)
.A2      AIF   (&AD EQ 0).A3
         DC    AL&AD.(&NEW01)
.A3      MEXIT
.END     DC    &CH.X'FF'
&OLD01   SETC  ' '
         SPACE 1
         MNOTE *,'      END OF SEQUENCED TABLE'
         SPACE 3
         MEND
         SPACE 5
         MACRO
&NAM     DCBE  &LRECL=,&BLKSIZE=,&BLKFACT=,&BUFNO=,&RECFM=,&CHECK=,    X
               &REG=1,&TYPE=CLOSED,&ERROR=,&EXLST=,&CSECT=,&XRECFM=
         GBLA  &RCFMDRS
         GBLB  &FFMSW,&VFMSW,&BFMSW
         LCLC  &LABL3,&LABL4,&LABL5,&LABL6,&LABL,&LABL2
         LCLC  &LABL7,&LABL8,&LABL9,&NAME,&RC,&CSCT
         LCLB  &ERSW,&EXSW
         LCLA  &N,&P,&R,&X
         SPACE 2
&LABL    SETC  'RCFM'.'&SYSNDX'
&CSCT    SETC  '&SYSECT'
&FFMSW   SETB  0
&VFMSW   SETB  0
&BFMSW   SETB  0
&LABL2   SETC  'ERRX'.'&SYSNDX'
&NAME    SETC  '&NAM'
&ERSW    SETB  (T'&ERROR NE 'O')
&EXSW    SETB  (T'&EXLST NE 'O')
         AIF   (T'&CSECT EQ 'O').NCS
&CSECT   CSECT
.NCS     AIF   ('&TYPE' NE 'CLOSED').NCK1
         AIF   (NOT &ERSW).OKA
         MNOTE 4,'*** ERROR= - IGNORED FOR TYPE=CLOSED'
&ERSW    SETB  1
         AGO   .OKA
.NCK1    AIF   (NOT &EXSW).OKA          OK IF EXLST NOT SPECIFIED
         MNOTE 4,'*** EXLST= IGNORED FOR TYPE=OPEN'
&EXSW    SETB  1
.OKA     AIF   (T'&NAM EQ 'O').NNM
         AIF   (NOT &EXSW).NEXL
.EXL     DS    0F
&EXLST   DC    X'85',AL3(&NAME) .       EXIT LIST
.NEXL    AIF   ('&TYPE' EQ 'OPEN').NTP  BR. IF NOT CLOSED
         USING &NAME,15
.NTP     ANOP
&NAME    DS    0H
         AGO   .OKN
.NNM     AIF   ('&TYPE' EQ 'OPEN').OKN
         AIF   (&EXSW).EXOK
         MNOTE 12,'*** NO LABEL SPECIFIED FOR TYPE=CLOSED, TERMINATED'
         MEXIT
.EXOK    ANOP
&NAME    SETC  'EXLB'.'&SYSNDX'
         AGO   .EXL
.OKN     SR    0,0 .                    ZERO INTO GR-0
&R       SETA  2
         AIF   ('&R' NE '&REG').OK
&R       SETA  3
.OK      AIF   ('&TYPE' NE 'OPEN').NSR
&LABL3   SETC  'RSAV'.'&SYSNDX'
         ST    &R,&LABL3
.NSR     AIF   (T'&RECFM EQ 'O').NRECFM
         DRSRECFM ,TYPE=OK              CLEAR OUT GLOBAL SWITCHES
*
*          RECFM =   HANDLER
*
&N       SETA  N'&RECFM
         AIF   (&N LT 2 AND '&XRECFM' EQ '').NX2
&FFMSW   SETB  1
&VFMSW   SETB  1
&BFMSW   SETB  1
         AIF   ('&XRECFM' EQ '').NX2
&RC      SETC  ''
&X       SETA  1
.LOPX    AIF   (&X GT N'&XRECFM).NX
&RC      SETC  '&RC'.'&XRECFM(&X)'
&X       SETA  &X+1
         AGO   .LOPX
.NX      DRSRECFM &RC,TYPE=X
&X       SETA  &RCFMDRS
.NX2     DRSRECFM &RECFM(1)
         LA    &R,&RCFMDRS .                  OBTAIN DEFAULT RECFM
         CLI   36(&REG),0 .                COMPARE RECFM TO ZERO
         AIF   ('&XRECFM' EQ '' AND N'&RECFM EQ 1).SPEC
.CHK1    BE    &LABL .               BR. IF RECFM IS ZERO
         IC    &R,36(0,&REG) .              SAVE FOR FUTURE USE
&P       SETA  1
         AIF   ('&XRECFM' EQ '').LOP
         NI    36(&REG),X'FF'-&X .        REMOVE EXTRA TYPES
         AGO   .LOP
.SPEC    BNE   &LABL+4 .             BR. IF RECFM NOT ZERO
         AGO   .CRYON
.LOPP    BE    &LABL .               BR. IF RECFM OK
.LOP     DRSRECFM &RECFM(&P)            GET RECFM IN NUMERICS
         CLI   36(&REG),&RCFMDRS .             SEE IF ALLOWABLE RECFM
&P       SETA  &P+1
         AIF   (&P LE &N).LOPP
         BNE   &LABL2 .               BR. IF RECFM NOT OK
.CRYON   ANOP
&LABL    STC   &R,36(0,&REG) .              STORE RECFM
.NRECFM  AIF   ('&XRECFM' EQ '' OR '&RECFM' NE '').NXRCFM
         MNOTE 4,'*** XRECFM= SPECIFIED WITH NO RECFM PARAMTER'
.NXRCFM  AIF   ('&LRECL' EQ '').NLRECL
*
*          LRECL=   HANDLER
*
         AIF   (T'&LRECL(1) NE 'O').LOK     BR. IF LRECL DEFAULT SPEC.
         MNOTE 4,'*** LRECL DEFAULT NOT SPECIFIED'
         AGO   .LOK2
.LOK     CH    0,82(0,&REG)
         AIF   ('&LRECL(1)'(1,1) EQ '(').LR
         BNE   *+12 .                   BR. IF LRECL NOT ZERO
&LABL4   SETC  'LRCL'.'&SYSNDX'
         LH    &R,&LABL4 .             GET DEFAULT LRECL
         STH   &R,82(0,&REG) .              STORE INTO LRECL
         AGO   .LOK2
.LR      BNE   *+8 .                    BR. IF LRECL NOT ZERO
&RC      SETC  '&LRECL(1)'(2,K'&LRECL(1)-2)
         STH   &RC,82(0,&REG) .              STORE DEFAULT LRECL
.LOK2    AIF   (T'&LRECL(2) EQ 'O').NLRECL
         AIF   ('&LRECL(2)'(1,1) EQ '(').LMR
&LABL9   SETC  'LRLM'.'&SYSNDX'
         LH    &R,&LABL9 .             GET MAXIMUM LRECL
         CH    &R,82(0,&REG) .              COMPARE MAX. TO LRECL
         AGO   .LMRN
.LMR     ANOP
&RC      SETC  '&LRECL(2)'(2,K'&LRECL(2)-2)
         CH    &RC,82(0,&REG) .              COMPARE MAX. TO LRECL
.LMRN    BL    &LABL2 .               BR. IF LRECL TOO HIGH
.NLRECL  AIF   (T'&BLKFACT EQ 'O').NFCT
*
*          BLKFACT=    HANDLER
*
&LABL8   SETC  'BFCT'.'&SYSNDX'
         CH    0,62(0,&REG) .              COMPARE BLKSIZE TO ZERO
         AIF   (&FFMSW).SML
         BNE   *+32 .                   BR. IF BLKSIZE NOT ZERO
         AGO   .LRG
.SML     BNE   *+20 .                   BR. IF BLKSIZE NOT ZERO
.LRG     LH    &R,82(0,&REG) .              OBTAIN LRECL
         MH    &R,&LABL8 .             MULTIPLY BY BLOCKING FACTOR
         AIF   (&FFMSW).NOTV
         TM    36(&REG),B'10000000' .      TEST IT RECFM='V'
         BO    *+8 .                    BR. IF IT IS NOT 'V'
         LA    &R,4(0,&R) .               ADD '4' FOR BLOCKED V FORMAT
.NOTV    STH   &R,62(0,&REG) .              INSERT CALCULATED BLKSIZE
         OI    36(&REG),B'00100000' .      FORCE BLOCKING IF BLKFACT
.NFCT    AIF   (T'&BLKFACT NE 'O' AND '&BLKSIZE' EQ '').NBLK
*
*          BLKSIZE=   HANDLER
*
         AIF   (T'&BLKSIZE(1) NE 'O' OR T'&BLKFACT NE 'O').DOBLK
.DBLK1   CH    0,62(0,&REG) .              COMPARE BLKSIZE TO ZERO
         BNE   *+12 .                   BR. IF NOT ZERO
         LH    &R,82(0,&REG) .              OBTAIN LRECL
         STH   &R,62(0,&REG) .              STORE IN BLKSIZE
         AGO   .NBLK1
.DOBLK   AIF   (T'&BLKSIZE(1) EQ 'O').NBLK1
         AIF   (T'&BLKFACT EQ 'O').NBF1
         MNOTE 4,'*** BLKSIZE DEFAULT IGNORED WHEN BLKFACT SPECIFIED'
         AGO   .NBLK1
.NBF1    CH    0,62(0,&REG) .              COMPARE BLKSIZE TO ZERO
         AIF   ('&BLKSIZE(1)'(1,1) EQ '(').BR
         BNE   *+12 .                   BR. IF BLKSIZE NOT ZERO
&LABL5   SETC  'BLKZ'.'&SYSNDX'
         LH    &R,&LABL5 .             GET DEFAULT BLKSIZE
         STH   &R,62(0,&REG) .              STORE DEFAULT BLKSIZE
         AGO   .NBLK1
.BR      BNE   *+8 .                    BR. IF BLKSIZE NOT ZERO
&RC      SETC  '&BLKSIZE(1)'(2,K'&BLKSIZE(2)-2)
         STH   &RC,62(0,&REG) .              STORE DEFAULT BLKSIZE
.NBLK1   AIF   (T'&BLKSIZE(2) EQ 'O').NBLK
         AIF   ('&BLKSIZE(2)'(1,1) EQ '(').BMR
&LABL6   SETC  'BLKC'.'&SYSNDX'
         LH    0,&LABL6 .             GET MAXIMUM BLKSIZE
         CH    0,62(0,&REG) .              COMPARE BLKSIZE TO MAX.
         AGO   .BMRN
.BMR     ANOP
&RC      SETC  '&BLKSIZE(2)'(2,K'&BLKSIZE(2)-2)
         CH    &RC,62(0,&REG) .              COMPARE BLKSIZE TO MAX.
.BMRN    BL    &LABL2 .               BR. IF BLKSIZE TOO LARGE
.NBLK    AIF   ('&BUFNO' EQ '').NBUF
*
*          BUFNO=   HANDLER
*
         AIF   (T'&BUFNO(1) EQ 'O').BFRN
         CLI   20(&REG),0 .                COMPARE BUFNO TO ZERO
         BNE   *+8 .                    BR. IF BUFNO IS ZERO
         AIF   ('&BUFNO(1)'(1,1) EQ '(').BFR
         MVI   20(&REG),&BUFNO(1) .               MOVE IN DEFAULT BUFNO
         AGO   .BFRN
.BFR     ANOP
&RC      SETC  '&BUFNO(1)'(2,K'&BUFNO(1)-2)
         STC   &RC,20(0,&REG) .              STORE DEFAULT BUFNO
.BFRN    AIF   (T'&BUFNO(2) EQ 'O').NBUF
         AIF   ('&BUFNO(2)'(1,1) EQ '(').BFMR
         CLI   20(&REG),&BUFNO(2) .               COMPARE TO MAX. BUFNO
         BNH   *+8 .                    BR. IF BUFNO TOO BIG
         MVI   20(&REG),&BUFNO(2) .               MOVE IN MAX. BUFNO
         AGO   .NBUF
.BFMR    SR    0,0
         IC    0,20(0,&REG) .              GET SPECIFIED BUFNO
&RC      SETC  '&BUFNO(2)'(2,K'&BUFNO(2)-2)
         CR    &RC,0 .                    COMPARE TO MAX. BUFNO
         BNH   *+8 .                    BR. IF BUFNO NOT TOO HIGH
         STC   &RC,20(0,&REG) .              STORE MAX. BUFNO
.NBUF    AIF   ('&CHECK' EQ '').NVC      BR. IF NOC HECK SPECIFIED
&LABL2   SETC  'ERRX'.'&SYSNDX'
         AIF   ('&CHECK(1)' NE 'F' AND '&CHECK' NE 'YES' OR &VFMSW).NFC
*
*          CROSS CHECK 'F' FORMAT
*
         AIF   (&FFMSW).ALB2
         TM    36(&REG),B'01000000' .      TEST FOR RECFM=F
         AIF   (&BFMSW).ALB1
         BO    *+32 .                   BR. IF NOT RECFM=F
         AGO   .ALB2
.ALB1    BO    *+20 .                   BR. IF NOT RECFM=F
.ALB2    LH    0,62(0,&REG) .              GET BLKSIZE
         AIF   (&BFMSW).ALB
         CH    0,82(0,&REG) .              COMPARE BLKSIZE TO LRECL
         BNH   *+8 .                    BR. IF NOT BLOCKED
         OI    36(&REG),B'00010000' .      FORCE BLOCKED IF B>L
.ALB     SH    0,82(0,&REG) .              SUBTRACT 1 LRECL
         BP    *-4 .                    BR. IF STILL MORE
         BNZ   &LABL2 .               ERROR IF NOT EVEN NO. OF LRECL
.NFC     AIF   ('&CHECK(1)' NE 'V' AND '&CHECK(2)' NE 'V' AND '&CHECK' X
               NE 'YES' OR &FFMSW).NVC
*
*          CROSS CHECK 'V' FORMAT
*
         AIF   (&VFMSW).MUSTV
         TM    36(&REG),B'10000000' .      CHECK IF RECFM=V
         BO    *+28 .                   BR. IF NOT RECFM=V
.MUSTV   ANOP
         LH    0,82(0,&REG) .              GET LRECL
         TM    36(&REG),B'00010000' .      CHECK IF BLKOCKED
         BZ    *+8 .                    BR. IF NOT BLOCKED
&LABL7   SETC  'FOUR'.'&SYSNDX'
         AH    0,&LABL7 .             ADD FOUR TO LRECL
         CH    0,62(0,&REG) .           COMPARE TO BLKSIZE
         BH    &LABL2 .                 BR. IF BLKSIZE < LRECL+4
.NVC     AIF   ('&TYPE' EQ 'OPEN').NVC1
         BR    14
         AGO   .DUN
.NVC1    B     &LABL2+8 .             BR. TO EXIT STATEMENTS
.DUN     SPACE 1
         AIF   ('&LABL3' EQ '').N1
&LABL3   DS    F
.N1      DRSORG &LABL4,&LABL5,&LABL6,&LABL7,&LABL8,&LABL9,&LRECL(1),   X
               &BLKSIZE(1),&BLKSIZE(2),4,&BLKFACT(1),&LRECL(2)
         AIF   ('&TYPE' NE 'OPEN').CLOS
         AIF   (T'&ERROR NE 'O').YER
.CLOS    DC    0A(0),X'80',AL3(432) .   ABEND U-432,DUMP
&LABL2   LR    14,&REG .                   GET ADDRESS OF DCB FOR ABEND
         L     1,&LABL2-4 .           GET ABEND CODE
         SVC   13 .                     ISSUE ABEND SVC
         AIF   ('&TYPE' EQ 'OPEN').NOPE
         DROP  15
         AGO   .MEX
.YER     ANOP
&LABL2   L     &R,&LABL3 .             RESTORE SAVED REGISTER
         B     &ERROR .                  TAKE SPEIFIED ERROR EXIT
.NOPE    L     &R,&LABL3 .             RESTORE SAVED REGISTER
.MEX     AIF   (T'&CSECT EQ 'O').MEX1
&CSCT    CSECT .                        RETURN TO OLD CSECT
.MEX1    SPACE 2
         MEND
         SPACE 5
         MACRO
         DRSRECFM  &R,&TYPE=
         GBLA  &RCFMDRS
         GBLB  &FFMSW,&VFMSW,&BFMSW
         GBLB  &SAXXXX,&SBXXXX,&STXXXX,&SMXXXX,&SSXXXX
         LCLB  &SA,&SB,&ST,&SM,&SS
         LCLA  &N,&P,&T
         LCLC  &C
         AIF   ('&TYPE' EQ '').NXX
&SAXXXX  SETB  0
&SBXXXX  SETB  0
&STXXXX  SETB  0
&SMXXXX  SETB  0
&SSXXXX  SETB  0
.NXX     ANOP
&N       SETA  0
&T       SETA  K'&R
         AIF   (&T EQ 0).DUN
&P       SETA  1
         AIF   ('&TYPE' NE '').LP1
&C       SETC  '&R'(1,1)
         AIF   ('&C' NE 'F').NF
&VFMSW   SETB  0
&N       SETA  &N+128
         AGO   .VF
.NF      AIF   ('&C' NE 'V').NV
&FFMSW   SETB  0
&N       SETA  &N+64
         AGO   .VF
.NV      AIF   ('&C' NE 'U').ER1
&VFMSW   SETB  0
&FFMSW   SETB  0