         MACRO
&NAME    TSTAMP
.*
.*  DATE AND TIME STAMP MACRO
.*  GENERATES A CONSTANT WITH DATE AND TIME OF PROGRAM COMPILATION
.*
         LCLC  &STAMP
&STAMP   SETC  'COMPILATION DATE='.'&SYSDATE'.' TIME='.'&SYSTIME'
&NAME    DC    C'&STAMP'
         MEND
