         MACRO
&NAME    @ASMCOMM
.*---------------------------------------------------------------------
.*       CONSOLE COMMUNICATIONS TASK ROUTINE
.*---------------------------------------------------------------------
         LCLC  &X
&X       SETC  '&SYSNDX'
&NAME    TM    @SW&X,@FT&X             FIRST TIME THRU ?
         BO    AAA&X                   NO - SKIP LOAD
         OI    @SW&X,@FT&X             YES - SET FLAG, LOAD COMM PGM
         LOAD  EP=COMMTASK             LOAD COMM PROGRAM
         ST    0,@EP&X                 SAVE EPA
AAA&X    EQU   *
         CLC   @REPLY(3),=C'EOJ'       REQUEST FOR TERMINATION ?
         BNE   BBB&X                   NO - BR TO COMM PGM
         DELETE EP=COMMTASK
         B     CCC&X
BBB&X    EQU   *
         LA    1,@PRM&X                ADDR OF PARM FOR COMM PGM
         L     15,@EP&X                LOAD EPA OF COMM PROGRAM
         BALR  14,15                   CHECK FOR COMMUNICATION
         B     CCC&X
@EP&X    DC    F'0'
@PRM&X   DC    A(@REPLY)
@REPLY   DC    CL80' '
@SW&X    DC    X'00'
@FT&X    EQU   X'01'
CCC&X    DS    0H
.*---------------------------------------------------------------------
.*---------------------------------------------------------------------
.*
.*       FREEWARE: THIS MACRO IS DISTRIBUTED ON AN AS-IS BASIS
.*                 WITHOUT WARRANTY, EITHER EXPRESSED OR IMPLIED, BY:
.*
.*                 THE NATIONAL SYSTEMS PROGRAMMERS ASSOCIATION (NASPA)
.*                 P.O. BOX 21525
.*                 GREENFIELD, WI 53221
.*
.*
.*       MACRO WRITTEN BY:
.*
.*                 PRODUCTIVITY SYSTEMS, INC.
.*                 MILWAUKEE, WI
.*
.*---------------------------------------------------------------------
.*
.*    THIS MACRO HAS MET A BASIC SET OF PROGRAMMING AND
.*    DOCUMENTATION STANDARDS, BUT HAS NOT BEEN PROGRAM TESTED IN ANY
.*    FORMAL FASHION BY NASPA. THE USER IS EXPECTED TO MAKE THE FINAL
.*    EVALUATION OF THE USE OF THIS MACRO IN THEIR ENVIRONMENT.
.*
.*    NASPA MAKES NO WARRANTY, EXPRESSED OR IMPLIED, OF THE FITNESS
.*    FOR A PARTICULAR PURPOSE AS RELATES TO THE DOCUMENTATION,
.*    FUNCTION, RESULTS, OR PERFORMANCE OF THIS MACRO.
.*
.*    IMPLEMENTATION AND USE OF THIS MACRO CONSTITUTES A RELEASE
.*    FROM LIABILITY OF NASPA FOR ANY PROBLEMS ARISING FROM THE USE OF
.*    THIS MACRO AT THE USER'S INSTALLATION.
.*
.*    THIS MACRO IS MADE AVAILABLE BY NASPA WITHOUT CHARGE.
.*    RECIPIENTS ARE FREE TO MAKE THIS MACRO AVAILABLE TO OTHERS IN
.*    LIKE MANNER, PROVIDED THIS DISCLAIMER IS KEPT INTACT.  IT MAY
.*    NOT BE SOLD, TRADED, OR EXCHANGED FOR CASH, SERVICES, OR AS AN
.*    INCENTIVE FOR SERVICES AND/OR OTHER PURCHASES, NOR MAY IT BE
.*    INTEGRATED INTO ANY PROGRAM FOR SUCH USE.
.*
.*---------------------------------------------------------------------
.*---------------------------------------------------------------------
         MEND
