         MACRO
&NAME    @JOBPARM &DSECT=NO,&CSECT=YES,&CONTDS=NO
*----------------------------------------------------------------------
*
*  MACRO OPTIONS:  DSECT=YES OR DSECT=NO  (DEFAULT IS NO)
*
*
*  PRMLNGTH - BIN - LENGTH OF CALLERS WORKAREA
*
*  LEAPFLAG - CHA - 1 - 0=NON-LEAPYEAR,  1=LEAPYEAR
*  JOBYMD   - CHA - 8 - YY/MM/DD
*  JOBMDY   - CHA - 8 - MM/DD/YY
*  CALPACK  - DEC - 4 - 0YYMMDD+
*  JULPACK  - DEC - 4 - 00YYDDD+
*  JULDATE  - CHA - 5 - YYDDD
*  PGMNAME  - CHA - 8 - NAME OF CALLING MODULE
*  JOBNAME  - CHA - 8 - JOB NAME
*  STEPNAME - CHA - 8 - STEP NAME
*  PSNAME   - CHA - 8 - PROC STEP NAME
*  JOBTIME  - DEC - 4 - HHMMSS0+
*  JOBTIMEC - CHA - 6 - HHMMSS
*  JOBTXXC  - CHA - 6 - MICRO SECONDS
*  JOBCLOCK - HEX - 8 - TOD CLOCK FORMAT
*  DAYNAME  - CHA - 9 - XXXXXXXXX
*
*                  ALL PACKED FIELDS HAVE A HEX F
*                  IN THE SIGN BITS
*
*----------------------------------------------------------------------
         AIF   ('&DSECT' EQ 'YES').CHKCONT
&NAME    DS    0D
@JPSTART EQU   *
PRMLNGTH DC    A(@JPLEN)
LEAPFLAG DC    CL1'0'
JOBYMD   DC    CL8'YY/MM/DD'      YY/MM/DD
JOBMDY   DS    0CL8               MM/DD/YY
JOBMM    DC    C'MM'
         DC    C'/'
JOBDD    DC    C'DD'
         DC    C'/'
JOBYY    DC    C'YY'
CALPACK  DC    PL4'9999999'       0YYMMDD+
JULPACK  DC    PL4'9999999'       00YYDDD+
JULDATE  DC    CL5'YYDDD'         YYDDD
PGMNAME  DC    CL8'PGMNAME'
JOBNAME  DC    CL8'JOBNAME'
STEPNAME DC    CL8'STEPNAME'
PSNAME   DC    CL8'PSNAME'
JOBTIME  DC    PL4'9999999'       HHMMSS0+
JOBTIMEC DS    0CL6
JOBTHH   DC    CL2'HH'
JOBTMM   DC    CL2'MM'
JOBTSS   DC    CL2'SS'
JOBTXXC  DC    CL6'XXXXXX'        FRACTIONS OF A SECOND - CHARACTER
JOBCLOCK DC    XL8'00'            TIME OF DAY CLOCK - BINARY
DAYNAME  DC    CL9'XXXXXXXXX'
@JPEND   EQU   *
         AGO   .DONE
.CHKCONT AIF   ('&CONTDS' EQ 'YES').DS
         DSECT
.DS      ANOP
&NAME    DS    0D
@JPSTART EQU   *
PRMLNGTH DS    F
LEAPFLAG DS    CL1
JOBYMD   DS    CL8
JOBMDY   DS    0CL8
JOBMM    DS    CL2
         DS    CL1
JOBDD    DS    CL2
         DS    CL1
JOBYY    DS    CL2
CALPACK  DS    PL4
JULPACK  DS    PL4
JULDATE  DS    CL5
PGMNAME  DS    CL8
JOBNAME  DS    CL8
STEPNAME DS    CL8
PSNAME   DS    CL8
JOBTIME  DS    PL4
JOBTIMEC DS    0CL6
JOBTHH   DS    CL2
JOBTMM   DS    CL2
JOBTSS   DS    CL2
JOBTXXC  DS    CL6              FRACTIONS OF A SECOND - CHARACTER
JOBCLOCK DS    XL8              TIME OF DAY CLOCK - BINARY
DAYNAME  DS    CL9
@JPEND   EQU   *
.DONE    ANOP
@JPLEN   EQU   (@JPEND-@JPSTART)
.*---------------------------------------------------------------------
.*---------------------------------------------------------------------
.*
.*       FREEWARE: THIS MACRO IS DISTRIBUTED ON AN AS-IS BASIS
.*                 WITHOUT WARRANTY, EITHER EXPRESSED OR IMPLIED, BY:
.*
.*                 THE NATIONAL SYSTEMS PROGRAMMERS ASSOCIATION (NASPA)
.*                 P.O. BOX 21525
.*                 GREENFIELD, WI 53221
.*
.*
.*       MACRO WRITTEN BY:
.*
.*                 PRODUCTIVITY SYSTEMS, INC.
.*                 MILWAUKEE, WI
.*
.*---------------------------------------------------------------------
.*
.*    THIS MACRO HAS MET A BASIC SET OF PROGRAMMING AND
.*    DOCUMENTATION STANDARDS, BUT HAS NOT BEEN PROGRAM TESTED IN ANY
.*    FORMAL FASHION BY NASPA. THE USER IS EXPECTED TO MAKE THE FINAL
.*    EVALUATION OF THE USE OF THIS MACRO IN THEIR ENVIRONMENT.
.*
.*    NASPA MAKES NO WARRANTY, EXPRESSED OR IMPLIED, OF THE FITNESS
.*    FOR A PARTICULAR PURPOSE AS RELATES TO THE DOCUMENTATION,
.*    FUNCTION, RESULTS, OR PERFORMANCE OF THIS MACRO.
.*
.*    IMPLEMENTATION AND USE OF THIS MACRO CONSTITUTES A RELEASE
.*    FROM LIABILITY OF NASPA FOR ANY PROBLEMS ARISING FROM THE USE OF
.*    THIS MACRO AT THE USER'S INSTALLATION.
.*
.*    THIS MACRO IS MADE AVAILABLE BY NASPA WITHOUT CHARGE.
.*    RECIPIENTS ARE FREE TO MAKE THIS MACRO AVAILABLE TO OTHERS IN
.*    LIKE MANNER, PROVIDED THIS DISCLAIMER IS KEPT INTACT.  IT MAY
.*    NOT BE SOLD, TRADED, OR EXCHANGED FOR CASH, SERVICES, OR AS AN
.*    INCENTIVE FOR SERVICES AND/OR OTHER PURCHASES, NOR MAY IT BE
.*    INTEGRATED INTO ANY PROGRAM FOR SUCH USE.
.*
.*---------------------------------------------------------------------
.*---------------------------------------------------------------------
         MEND
