         MACRO
&NAME    @JPF1
.*---------------------------------------------------------------------
.*       JES PRINT FACILITY - 3287 PRINTER TABLE LAYOUT
.*---------------------------------------------------------------------
*----------------------------------------------------------------------
JPFADDR  DSECT
JPFFIRST DS    F                  FIRST ENTRY IN TABLE ADDR
JPFLLTBL DS    F                  LENGTH OF THE TABLE
JPFENTLL DS    F                  LENGTH OF EACH ENTRY
JPF#ENT  DS    F                  NUMBER OF ENTRIES IN THE TABLE
JPFEND   DS    F                  END OF TABLE ADDR
*----------------------------------------------------------------------
JPFDATA  DSECT
JPFLUNAM DS    CL8
JPFJESID DS    CL8
JPFLINES DS    XL4
JPFALT   DS    CL8
JPFCLASS DS    CL36
JPFFLAG  DS    XL1
JPFDESC  DS    CL40
JPFXXXXX DS    CL3
&SYSECT  CSECT
*----------------------------------------------------------------------
*        JPFFLAG BITS
*----------------------------------------------------------------------
JPFSF    EQU   X'80'              SPECIAL FORMS ALLOWED
JPFCASE  EQU   X'40'              UPPER CASE ONLY
.*---------------------------------------------------------------------
.*---------------------------------------------------------------------
.*
.*       FREEWARE: THIS MACRO IS DISTRIBUTED ON AN AS-IS BASIS
.*                 WITHOUT WARRANTY, EITHER EXPRESSED OR IMPLIED, BY:
.*
.*                 THE NATIONAL SYSTEMS PROGRAMMERS ASSOCIATION (NASPA)
.*                 P.O. BOX 21525
.*                 GREENFIELD, WI 53221
.*
.*
.*       MACRO WRITTEN BY:
.*
.*                 PRODUCTIVITY SYSTEMS, INC.
.*                 MILWAUKEE, WI
.*
.*---------------------------------------------------------------------
.*
.*    THIS MACRO HAS MET A BASIC SET OF PROGRAMMING AND
.*    DOCUMENTATION STANDARDS, BUT HAS NOT BEEN PROGRAM TESTED IN ANY
.*    FORMAL FASHION BY NASPA. THE USER IS EXPECTED TO MAKE THE FINAL
.*    EVALUATION OF THE USE OF THIS MACRO IN THEIR ENVIRONMENT.
.*
.*    NASPA MAKES NO WARRANTY, EXPRESSED OR IMPLIED, OF THE FITNESS
.*    FOR A PARTICULAR PURPOSE AS RELATES TO THE DOCUMENTATION,
.*    FUNCTION, RESULTS, OR PERFORMANCE OF THIS MACRO.
.*
.*    IMPLEMENTATION AND USE OF THIS MACRO CONSTITUTES A RELEASE
.*    FROM LIABILITY OF NASPA FOR ANY PROBLEMS ARISING FROM THE USE OF
.*    THIS MACRO AT THE USER'S INSTALLATION.
.*
.*    THIS MACRO IS MADE AVAILABLE BY NASPA WITHOUT CHARGE.
.*    RECIPIENTS ARE FREE TO MAKE THIS MACRO AVAILABLE TO OTHERS IN
.*    LIKE MANNER, PROVIDED THIS DISCLAIMER IS KEPT INTACT.  IT MAY
.*    NOT BE SOLD, TRADED, OR EXCHANGED FOR CASH, SERVICES, OR AS AN
.*    INCENTIVE FOR SERVICES AND/OR OTHER PURCHASES, NOR MAY IT BE
.*    INTEGRATED INTO ANY PROGRAM FOR SUCH USE.
.*
.*---------------------------------------------------------------------
.*---------------------------------------------------------------------
         MEND
