         MACRO
&NAME    @JPF2 &LU=,&RMTID=,&MAXLNS=,&ALTID=,&CLASS=,&DESC=,           +
               &FORMS=NO,&CASE=BOTH
         LCLC  &FRM,&CSE
.*---------------------------------------------------------------------
.*       JES PRINT FACILITY - 3287 TABLE MACRO
.*---------------------------------------------------------------------
&FRM     SETC  '00'
&CSE     SETC  '00'
         AIF   ('&FORMS' EQ 'NO').NOSF
         AIF   ('&FORMS' EQ 'YES').SF
         MNOTE 8,'*** INVALID FORMS VALUE'
         MEXIT
.SF      ANOP
&FRM     SETC  '128'
.NOSF    ANOP
.*---------------------------------------------------------------------
         AIF   ('&CASE' EQ 'BOTH').BOTH
         AIF   ('&CASE' EQ 'UPPER').UPPER
         MNOTE 8,'*** INVALID CASE VALUE'
         MEXIT
.UPPER   ANOP
&CSE     SETC  '64'
.BOTH    ANOP
.*---------------------------------------------------------------------
         AIF   (K'&DESC LT 43).DESCOK
         MNOTE 8,'*** DESC FIELD EXCEEDS 40 CHARACTERS'
         MEXIT
.DESCOK  ANOP
.*---------------------------------------------------------------------
         AIF   ('&RMTID'(1,1) EQ 'R').RMTOK
         MNOTE 8,'*** INVALID REMOTE ID'
         MEXIT
.RMTOK   ANOP
.*---------------------------------------------------------------------
         AIF   ('&ALTID'(1,1) EQ 'R').ALTOK
         MNOTE 8,'*** INVALID ALTERNATE ID'
         MEXIT
.ALTOK   ANOP
.*---------------------------------------------------------------------
&NAME    DS    0F
         DC    CL8'&LU'           LUNAME
         DC    CL8'&RMTID'        JES REMOTE ID
         DC    A(&MAXLNS)         MAX LINES
         DC    CL8'&ALTID'        ALTERNATE PRINTER
         DC    CL36'&CLASS'       VALID CLASSES
         DC    AL1(&FRM+&CSE)     FLAG BYTE
         DC    CL40&DESC
         DC    CL3' '             FILLER
.*---------------------------------------------------------------------
.*---------------------------------------------------------------------
.*
.*       FREEWARE: THIS MACRO IS DISTRIBUTED ON AN AS-IS BASIS
.*                 WITHOUT WARRANTY, EITHER EXPRESSED OR IMPLIED, BY:
.*
.*                 THE NATIONAL SYSTEMS PROGRAMMERS ASSOCIATION (NASPA)
.*                 P.O. BOX 21525
.*                 GREENFIELD, WI 53221
.*
.*
.*       MACRO WRITTEN BY:
.*
.*                 PRODUCTIVITY SYSTEMS, INC.
.*                 MILWAUKEE, WI
.*
.*---------------------------------------------------------------------
.*
.*    THIS MACRO HAS MET A BASIC SET OF PROGRAMMING AND
.*    DOCUMENTATION STANDARDS, BUT HAS NOT BEEN PROGRAM TESTED IN ANY
.*    FORMAL FASHION BY NASPA. THE USER IS EXPECTED TO MAKE THE FINAL
.*    EVALUATION OF THE USE OF THIS MACRO IN THEIR ENVIRONMENT.
.*
.*    NASPA MAKES NO WARRANTY, EXPRESSED OR IMPLIED, OF THE FITNESS
.*    FOR A PARTICULAR PURPOSE AS RELATES TO THE DOCUMENTATION,
.*    FUNCTION, RESULTS, OR PERFORMANCE OF THIS MACRO.
.*
.*    IMPLEMENTATION AND USE OF THIS MACRO CONSTITUTES A RELEASE
.*    FROM LIABILITY OF NASPA FOR ANY PROBLEMS ARISING FROM THE USE OF
.*    THIS MACRO AT THE USER'S INSTALLATION.
.*
.*    THIS MACRO IS MADE AVAILABLE BY NASPA WITHOUT CHARGE.
.*    RECIPIENTS ARE FREE TO MAKE THIS MACRO AVAILABLE TO OTHERS IN
.*    LIKE MANNER, PROVIDED THIS DISCLAIMER IS KEPT INTACT.  IT MAY
.*    NOT BE SOLD, TRADED, OR EXCHANGED FOR CASH, SERVICES, OR AS AN
.*    INCENTIVE FOR SERVICES AND/OR OTHER PURCHASES, NOR MAY IT BE
.*    INTEGRATED INTO ANY PROGRAM FOR SUCH USE.
.*
.*---------------------------------------------------------------------
.*---------------------------------------------------------------------
         MEND
