         MACRO
&NAME    @RVPARM &DSECT=NO,&CSECT=YES,&CONTDS=NO
*----------------------------------------------------------------------
*
*  MAP DATA PASSED TO READVTOC SUBROUTINE
*
*  USAGE NOTES:
*
*        ALL ZEROS - ALL DASD VOLUMES WILL BE PROCESSED
*        RVUCBNME - SET THIS TO PROCESS A SPECIFIC DASD ADDR
*        RVUCBVOL - SET THIS TO PROCESS A SPECIFIC DASD VOLUME
*        RVUCBSTA - SET THIS TO PROCESS ONLY:
*                   PRIVATE, STORAGE, OR PUBLIC
*
*
*----------------------------------------------------------------------
         AIF   ('&DSECT' EQ 'YES').CHKCONT
&NAME    DS    0D
RVMASK   DS    0XL40              UCB MASK
         DC    XL13'00'
RVUCBNME DC    XL3'00'            CHAR - UCB NAME   CUA
         DC    XL12'00'
RVUCBVOL DC    XL6'00'            CHAR - VOLUME SERIAL NUMBER
RVUCBSTA DC    XL1'00'            HEX  - VOLUME STATUS
         DC    XL5'00'
         AGO   .DONE
.CHKCONT AIF   ('&CONTDS' EQ 'YES').DS
&NAME    DSECT
.DS      ANOP
RVMASK   DS    0XL40              UCB MASK
         DS    XL13
RVUCBNME DS    XL3                CHAR - UCB NAME   CUA
         DS    XL12
RVUCBVOL DS    XL6                CHAR - VOLUME SERIAL NUMBER
RVUCBSTA DS    XL1                HEX  - VOLUME STATUS
&SYSECT  CSECT
.DONE    ANOP
*                                 VOLUME STATUS BITS - RVUCBSTA
RVUCBPRV EQU   X'10'                     PRIVATE
RVUCBPUB EQU   X'08'                     PUBLIC
RVUCBSTG EQU   X'04'                     STORAGE
.*---------------------------------------------------------------------
.*---------------------------------------------------------------------
.*
.*       FREEWARE: THIS MACRO IS DISTRIBUTED ON AN AS-IS BASIS
.*                 WITHOUT WARRANTY, EITHER EXPRESSED OR IMPLIED, BY:
.*
.*                 THE NATIONAL SYSTEMS PROGRAMMERS ASSOCIATION (NASPA)
.*                 P.O. BOX 21525
.*                 GREENFIELD, WI 53221
.*
.*
.*       MACRO WRITTEN BY:
.*
.*                 PRODUCTIVITY SYSTEMS, INC.
.*                 MILWAUKEE, WI
.*
.*---------------------------------------------------------------------
.*
.*    THIS MACRO HAS MET A BASIC SET OF PROGRAMMING AND
.*    DOCUMENTATION STANDARDS, BUT HAS NOT BEEN PROGRAM TESTED IN ANY
.*    FORMAL FASHION BY NASPA. THE USER IS EXPECTED TO MAKE THE FINAL
.*    EVALUATION OF THE USE OF THIS MACRO IN THEIR ENVIRONMENT.
.*
.*    NASPA MAKES NO WARRANTY, EXPRESSED OR IMPLIED, OF THE FITNESS
.*    FOR A PARTICULAR PURPOSE AS RELATES TO THE DOCUMENTATION,
.*    FUNCTION, RESULTS, OR PERFORMANCE OF THIS MACRO.
.*
.*    IMPLEMENTATION AND USE OF THIS MACRO CONSTITUTES A RELEASE
.*    FROM LIABILITY OF NASPA FOR ANY PROBLEMS ARISING FROM THE USE OF
.*    THIS MACRO AT THE USER'S INSTALLATION.
.*
.*    THIS MACRO IS MADE AVAILABLE BY NASPA WITHOUT CHARGE.
.*    RECIPIENTS ARE FREE TO MAKE THIS MACRO AVAILABLE TO OTHERS IN
.*    LIKE MANNER, PROVIDED THIS DISCLAIMER IS KEPT INTACT.  IT MAY
.*    NOT BE SOLD, TRADED, OR EXCHANGED FOR CASH, SERVICES, OR AS AN
.*    INCENTIVE FOR SERVICES AND/OR OTHER PURCHASES, NOR MAY IT BE
.*    INTEGRATED INTO ANY PROGRAM FOR SUCH USE.
.*
.*---------------------------------------------------------------------
.*---------------------------------------------------------------------
         MEND
