         MACRO
&NAME    @STCKD  &DSECT=NO,&CSECT=YES,&CONTDS=NO
.*---------------------------------------------------------------------
.*
.*       TARGET AREA FOR @STCK MACRO
.*
.*---------------------------------------------------------------------
         AIF   ('&DSECT' EQ 'YES').CHKCONT
&NAME    DS    0D
TOD1     EQU   *
         DC    8D'0'         64 BYTE WORKAREA
*
TODCLOCK DC    XL8'00'       TIME OF DAY CLOCK
TODLEN   DC    AL2(TODLL)    LENGTH OF THIS AREA
*
TODYYDDD DS    0CL5          CHAR - JULIAN DATE
TODYY    DC    CL2' '        CHAR - YEAR
TODDDD   DC    CL3' '        CHAR - JULIAN DATE
*
TODTIME  DS    0CL12         CHAR - TIME
TODHH    DC    CL2' '        CHAR - HOURS
TODMM    DC    CL2' '        CHAR - MINUTES
TODSS    DC    CL2' '        CHAR - SECONDS
TODMICS  DC    CL6' '        CHAR - MICRO-SECONDS
TOD2     EQU   *
*
         AGO   .DONE
.CHKCONT AIF   ('&CONTDS' EQ 'YES').DS
         DSECT
.DS      ANOP
&NAME    DS    0D
TOD1     EQU   *
         DS    8D            64 BYTE WORKAREA
*
TODCLOCK DS    XL8           TIME OF DAY CLOCK
TODLEN   DS    XL2           LENGTH OF THIS AREA
*
TODYYDDD DS    0CL5          CHAR - JULIAN DATE
TODYY    DS    CL2           CHAR - YEAR
TODDDD   DS    CL3           CHAR - JULIAN DATE
*
TODTIME  DS    0CL12         CHAR - TIME
TODHH    DS    CL2           CHAR - HOURS
TODMM    DS    CL2           CHAR - MINUTES
TODSS    DS    CL2           CHAR - SECONDS
TODMICS  DS    CL6           CHAR - MICRO-SECONDS
TOD2     EQU   *
*
         AIF   ('&CSECT' EQ 'NO').DONE
&SYSECT  CSECT
.DONE    ANOP
TODLL    EQU   TOD2-TOD1
.*---------------------------------------------------------------------
.*---------------------------------------------------------------------
.*
.*       FREEWARE: THIS MACRO IS DISTRIBUTED ON AN AS-IS BASIS
.*                 WITHOUT WARRANTY, EITHER EXPRESSED OR IMPLIED, BY:
.*
.*                 THE NATIONAL SYSTEMS PROGRAMMERS ASSOCIATION (NASPA)
.*                 P.O. BOX 21525
.*                 GREENFIELD, WI 53221
.*
.*
.*       MACRO WRITTEN BY:
.*
.*                 PRODUCTIVITY SYSTEMS, INC.
.*                 MILWAUKEE, WI
.*
.*---------------------------------------------------------------------
.*
.*    THIS MACRO HAS MET A BASIC SET OF PROGRAMMING AND
.*    DOCUMENTATION STANDARDS, BUT HAS NOT BEEN PROGRAM TESTED IN ANY
.*    FORMAL FASHION BY NASPA. THE USER IS EXPECTED TO MAKE THE FINAL
.*    EVALUATION OF THE USE OF THIS MACRO IN THEIR ENVIRONMENT.
.*
.*    NASPA MAKES NO WARRANTY, EXPRESSED OR IMPLIED, OF THE FITNESS
.*    FOR A PARTICULAR PURPOSE AS RELATES TO THE DOCUMENTATION,
.*    FUNCTION, RESULTS, OR PERFORMANCE OF THIS MACRO.
.*
.*    IMPLEMENTATION AND USE OF THIS MACRO CONSTITUTES A RELEASE
.*    FROM LIABILITY OF NASPA FOR ANY PROBLEMS ARISING FROM THE USE OF
.*    THIS MACRO AT THE USER'S INSTALLATION.
.*
.*    THIS MACRO IS MADE AVAILABLE BY NASPA WITHOUT CHARGE.
.*    RECIPIENTS ARE FREE TO MAKE THIS MACRO AVAILABLE TO OTHERS IN
.*    LIKE MANNER, PROVIDED THIS DISCLAIMER IS KEPT INTACT.  IT MAY
.*    NOT BE SOLD, TRADED, OR EXCHANGED FOR CASH, SERVICES, OR AS AN
.*    INCENTIVE FOR SERVICES AND/OR OTHER PURCHASES, NOR MAY IT BE
.*    INTEGRATED INTO ANY PROGRAM FOR SUCH USE.
.*
.*---------------------------------------------------------------------
.*---------------------------------------------------------------------
         MEND
