         MACRO
&NAME    ALCLRECL &LRECL=
.*---------------------------------------------------------------------
.*       THIS MACRO IS CALLED BY THE 'SPFALLOC' MACRO TO PROCESS THE
.*       'LRECL' KEYWORD
.*
.*       LRECL='NNNNN'          NUMERIC VALUE - MAX 32767
.*       LRECL=NAME             NAME  DC  H'NNNNN'  HALFWORD
.*
.*---------------------------------------------------------------------
         LCLA  &X
         LCLC  &LIT
&X       SETA  &SYSNDX
&NAME    DS    0H
*----------------------------------------------------------------------
*        LRECL
*----------------------------------------------------------------------
         STCM  R14,15,S99TUPTR    TEXT UNIT POINTER
         LA    R1,DALLRECL        KEY FOR LRECL
         STCM  R1,3,S99TUKEY      PUT IN TEXT UNIT KEY FIELD
         MVC   S99TUNUM,=H'1'     MOVE 1 TO TXT UNIT NUMBR FLD
         MVC   S99TULNG,=H'2'     MOVE 2 TO TXT UNIT LNGTH FLD
         AIF   ('&LRECL'(1,1) EQ '''').AAA
         CLC   &LRECL,=H'0'       ANY SPECIFIED ?
         BNH   MZZZ&X             NO - SKIP IT
         MVC   S99TUPAR(2),&LRECL LRECL
         AGO   .BBB
.AAA     ANOP
&LIT     SETC  '&LRECL'(2,K'&LRECL-2)
         MVC   S99TUPAR(2),=AL2(&LIT)   LRECL
.BBB     ANOP
         LA    R14,8(R14)         BUMP TO NEXT TXT UNIT
         LA    R15,4(R15)         BUMP TO NEXT TXT UNIT PTR
MZZZ&X   EQU   *
.*---------------------------------------------------------------------
.*---------------------------------------------------------------------
.*
.*       FREEWARE: THIS MACRO IS DISTRIBUTED ON AN AS-IS BASIS
.*                 WITHOUT WARRANTY, EITHER EXPRESSED OR IMPLIED, BY:
.*
.*                 THE NATIONAL SYSTEMS PROGRAMMERS ASSOCIATION (NASPA)
.*                 P.O. BOX 21525
.*                 GREENFIELD, WI 53221
.*
.*
.*       MACRO WRITTEN BY:
.*
.*                 PRODUCTIVITY SYSTEMS, INC.
.*                 MILWAUKEE, WI
.*
.*---------------------------------------------------------------------
.*
.*    THIS MACRO HAS MET A BASIC SET OF PROGRAMMING AND
.*    DOCUMENTATION STANDARDS, BUT HAS NOT BEEN PROGRAM TESTED IN ANY
.*    FORMAL FASHION BY NASPA. THE USER IS EXPECTED TO MAKE THE FINAL
.*    EVALUATION OF THE USE OF THIS MACRO IN THEIR ENVIRONMENT.
.*
.*    NASPA MAKES NO WARRANTY, EXPRESSED OR IMPLIED, OF THE FITNESS
.*    FOR A PARTICULAR PURPOSE AS RELATES TO THE DOCUMENTATION,
.*    FUNCTION, RESULTS, OR PERFORMANCE OF THIS MACRO.
.*
.*    IMPLEMENTATION AND USE OF THIS MACRO CONSTITUTES A RELEASE
.*    FROM LIABILITY OF NASPA FOR ANY PROBLEMS ARISING FROM THE USE OF
.*    THIS MACRO AT THE USER'S INSTALLATION.
.*
.*    THIS MACRO IS MADE AVAILABLE BY NASPA WITHOUT CHARGE.
.*    RECIPIENTS ARE FREE TO MAKE THIS MACRO AVAILABLE TO OTHERS IN
.*    LIKE MANNER, PROVIDED THIS DISCLAIMER IS KEPT INTACT.  IT MAY
.*    NOT BE SOLD, TRADED, OR EXCHANGED FOR CASH, SERVICES, OR AS AN
.*    INCENTIVE FOR SERVICES AND/OR OTHER PURCHASES, NOR MAY IT BE
.*    INTEGRATED INTO ANY PROGRAM FOR SUCH USE.
.*
.*---------------------------------------------------------------------
.*---------------------------------------------------------------------
         MEND
