         MACRO
&NAME    ALCRETDS &RETDSN=
.*---------------------------------------------------------------------
.*       THIS MACRO IS CALLED BY THE 'SPFALLOC' MACRO TO PROCESS THE
.*       'RETDSN' KEYWORD
.*        @MK           @MK             @MK             @MK
.*       RETDSN=NAME            NAME  DC  CL44' '
.*---------------------------------------------------------------------
&NAME    DS    0H
*----------------------------------------------------------------------
*        RETURN THE DSNAME ALLOCATED - DYNAMIC INFORMATION RETRIEVAL
*----------------------------------------------------------------------
         STCM  R14,15,S99TUPTR    TEXT UNIT POINTER
         LA    R1,DINRTDSN        KEY FOR RETURN DSN-DYNAM INFO RETRVL
         STCM  R1,3,S99TUKEY      PUT IN TEXT UNIT KEY FIELD
         MVC   S99TUNUM,=H'1'     MOVE 1 TO TXT UNIT NUMBR FLD
         MVC   S99TULNG,=H'44'    MOVE 44 TO TXT UNIT LNGTH FLD
         MVI   S99TUPAR,C' '      INITIALIZE TO BLANKS
         MVC   S99TUPAR+1(43),S99TUPAR
         LA    R5,S99TUPAR        SAVE THIS ADDR FOR LATER
         LA    R14,14(R14)        BUMP TO NEXT TEXT UNIT
         LA    R15,4(R15)         BUMP TO NEXT TXT UNIT PTR
         MEND
