         MACRO
&NAME    SPFCMDS &TABLES=NO,&FILES=NO,&PRINT=NO,&DCBD=PS,&DSCB1=SEARCH,+
               &ENQDEQ=Y,&LIB=NO
.*---------------------------------------------------------------------
.*       THIS MACRO GENERATES CONSTANTS AND WORKAREAS USED BY SPF
.*       SERVICES AND THE 'SPF.....' MACROS.
.*
.*---------------------------------------------------------------------
         LTORG
         AIF   ('&ENQDEQ' EQ 'ONLY').ED1
&NAME    DS    0D
SPFA     EQU   *
*        DISPLAY SERVICES
DISPLAY  DC    CL8'DISPLAY'
TBDISPL  DC    CL8'TBDISPL'
         AIF   ('&TABLES' EQ 'NO').NT
*        TABLE SERVICES - GENERAL
TBCREATE DC    CL8'TBCREATE'
TBOPEN   DC    CL8'TBOPEN'
TBQUERY  DC    CL8'TBQUERY'
TBSAVE   DC    CL8'TBSAVE'
TBCLOSE  DC    CL8'TBCLOSE'
TBEND    DC    CL8'TBEND'
TBERASE  DC    CL8'TBERASE'
*        TABLE SERVICES - ROW OPERATIONS
TBADD    DC    CL8'TBADD'
TBDELETE DC    CL8'TBDELETE'
TBGET    DC    CL8'TBGET'
TBPUT    DC    CL8'TBPUT'
TBMOD    DC    CL8'TBMOD'
TBEXIST  DC    CL8'TBEXIST'
TBSCAN   DC    CL8'TBSCAN'
TBSARG   DC    CL8'TBSARG'
TBSORT   DC    CL8'TBSORT'
TBTOP    DC    CL8'TBTOP'
TBBOTTOM DC    CL8'TBBOTTOM'
TBSKIP   DC    CL8'TBSKIP'
TBSTATS  DC    CL8'TBSTATS'
TBVCLEAR DC    CL8'TBVCLEAR'
.NT      ANOP
         AIF   ('&FILES' EQ 'NO').NF
*        FILE TAILORING SERVICES
FTOPEN   DC    CL8'FTOPEN'
FTINCL   DC    CL8'FTINCL'
FTCLOSE  DC    CL8'FTCLOSE'
FTERASE  DC    CL8'FTERASE'
.NF      ANOP
*        VARIABLE SERVICES
VGET     DC    CL8'VGET'
VPUT     DC    CL8'VPUT'
VDEFINE  DC    CL8'VDEFINE'
VDELETE  DC    CL8'VDELETE'
VCOPY    DC    CL8'VCOPY'
VREPLACE DC    CL8'VREPLACE'
VRESET   DC    CL8'VRESET'
*        OTHER SERVICES
SELECT   DC    CL8'SELECT'
SETMSG   DC    CL8'SETMSG'                 @MK
CONTROL  DC    CL8'CONTROL'
BROWSE   DC    CL8'BROWSE'
EDIT     DC    CL8'EDIT'
EDREC    DC    CL8'EDREC'
LIST     DC    CL8'LIST'                   @MK
LOG      DC    CL8'LOG'
INIT     DC    CL8'INIT'
QUERY    DC    CL8'QUERY'
PROCESS  DC    CL8'PROCESS'
DEFER    DC    CL8'DEFER'
ORDER    DC    CL8'ORDER'
*        FUNCTIONS/MODES
ASIS     DC    CL8'ASIS'
CANCEL   DC    CL8'CANCEL'
DISABLE  DC    CL8'DISABLE'
ENABLE   DC    CL8'ENABLE'
END      DC    CL8'END'
ENTER    DC    CL8'ENTER'
ERRORS   DC    CL8'ERRORS'
LINE     DC    CL8'LINE'
LOCATE   DC    CL8'LOCATE'
LOCK     DC    CL8'LOCK'
MOVE     DC    CL8'MOVE'
NEWCOPY  DC    CL8'NEWCOPY'
NOFT     DC    CL8'NOFT'
NONDISPL DC    CL8'NONDISPL'
NOWRITE  DC    CL8'NOWRITE'
PROFILE  DC    CL8'PROFILE'
REFRESH  DC    CL8'REFRESH'
REPLACE  DC    CL8'REPLACE'
REPLCOPY DC    CL8'REPLCOPY'
RETURN   DC    CL8'RETURN'
RESTORE  DC    CL8'RESTORE'
SAVE     DC    CL8'SAVE'
SHARED   DC    CL8'SHARED'
SHARE    DC    CL8'SHARE'
SPLIT    DC    CL8'SPLIT'
SM       DC    CL8'SM'
TEMP     DC    CL8'TEMP'
WRITE    DC    CL8'WRITE'
*        FORMATS
CHAR     DC    CL8'CHAR'
FIXED    DC    CL8'FIXED'
BIT      DC    CL8'BIT'
HEX      DC    CL8'HEX'
*
*        PRE-DEFINED FIELDS FOR CALLS TO ISPLINK
*
ZEDCMD   DC    CL1' '
PANEL    DC    CL8' '
PROC     DC    CL8' '
MSG      DC    CL8' '
CURSOR   DC    CL8' '
AUTOSEL  DC    CL3' '
YES      DC    CL3'YES'
NO       DC    CL3'NO '
*----------------------------------------------------------------------
NCRP     DC    CL8'CRP'      NAME OF CRP FIELD
CRP      DC    F'0'
ROW      DC    F'0'
*----------------------------------------------------------------------
         AIF   ('&LIB' EQ 'NO').NOLIB
LMPROM   DC    CL8'LMPROM'
.NOLIB   ANOP
*----------------------------------------------------------------------
*        WORK AREAS USED BY OTHER SPF MACROS
*----------------------------------------------------------------------
         AIF   ('&PRINT' EQ 'YES').GEN
         PUSH  PRINT
         PRINT NOGEN
.GEN     ANOP
SPFDBWRD DC    D'0'               WORK AREA
SPFRC    DC    F'0'               WORK AREA
SPFPSWD  DC    CL8' '       BROWSE/EDIT DATASET PASSWORD - ALWAYS BLANK
SPFIMAC  DC    CL8' '             EDIT IMACRO NAME
SPFPROF  DC    CL8' '             EDIT PROFILE NAME
SPFEPAN  DC    CL8' '             EDIT PANEL NAME
.ED1     ANOP
SPFEDIT  DC    CL8'SPFEDIT'       QNAME FOR SPF ENQ/DEQ
SPFDSN   DC    CL8'SPFDSN'        QNAME FOR SPF ENQ/DEQ
         AIF   ('&ENQDEQ' EQ 'ONLY').ED2
*----------------------------------------------------------------------
SPFDSCB  DS    0D
         AIF   ('&DSCB1' EQ 'NO').SEEK2
         AIF   ('&DSCB1' EQ 'SEEK').SEEK1
         ORG   SPFDSCB-44         LINE UP IECSDSL1 MACRO WITH THE AREA
.SEEK1   ANOP
         IECSDSL1 (1)
         AIF   ('&DSCB1' EQ 'SEEK').SEEK2
         ORG   IECSDSL1+44
.SEEK2   ANOP
SPFDSCBX DC    XL256'00'          FIRST 256 BYTES OF DSCB AREA
SPFDSCBY DC    XL9'00'            LAST 9 BYTES OF DSCB AREA
*----------------------------------------------------------------------
SPFBLIST DS    0F                 BLDL LIST
         DC    H'1'               1 ENTRY
         DC    H'74'              AREA LENGTH
SPFBMBR  DC    CL8' '             BLDL MEMBER NAME
SPFBAREA DC    XL66'00'           BLDL WORK AREA
SPFBDCB  DCB   DDNAME=X,DSORG=PO,MACRF=(R,W)
*----------------------------------------------------------------------
SPFREGS  DC    16F'0'
*----------------------------------------------------------------------
SPFTRT   DC    XL256'00'
*----------------------------------------------------------------------
.ED2     ANOP
BLANKS   DC    CL256' '
SPFDYNAM DC    2XL256'00'
         AIF   ('&ENQDEQ' EQ 'ONLY').ED3
SPFDYNLL EQU   512
SPFDYN15 DC    F'0'           R15 FROM DYNAMIC ALLOCATION
SPFDYNER DC    F'0'           DYN ERROR FROM S99ERROR
SPFDYNIN DC    F'0'           DYN INFO FROM S99INFO
*----------------------------------------------------------------------
SPFVOL   DC    CL6' '         VOL SER NUMBER
SPFDEVT  DC    XL4'00'        UCBTYPE FIELD
*----------------------------------------------------------------------
SPFB     EQU   *
SPFLEN   EQU   (SPFB-SPFA)
         DCBD  DSORG=&DCBD
         IEFZB4D0
         IEFZB4D2
RBLEN    EQU   (S99RBEND-S99RB)
&SYSECT  CSECT
         AIF   ('&PRINT' EQ 'YES').MEND
         POP   PRINT
.ED3     ANOP
.MEND    ANOP
.*---------------------------------------------------------------------
.*---------------------------------------------------------------------
.*
.*       FREEWARE: THIS MACRO IS DISTRIBUTED ON AN AS-IS BASIS
.*                 WITHOUT WARRANTY, EITHER EXPRESSED OR IMPLIED, BY:
.*
.*                 THE NATIONAL SYSTEMS PROGRAMMERS ASSOCIATION (NASPA)
.*                 P.O. BOX 21525
.*                 GREENFIELD, WI 53221
.*
.*
.*       MACRO WRITTEN BY:
.*
.*                 PRODUCTIVITY SYSTEMS, INC.
.*                 MILWAUKEE, WI
.*
.*---------------------------------------------------------------------
.*
.*    THIS MACRO HAS MET A BASIC SET OF PROGRAMMING AND
.*    DOCUMENTATION STANDARDS, BUT HAS NOT BEEN PROGRAM TESTED IN ANY
.*    FORMAL FASHION BY NASPA. THE USER IS EXPECTED TO MAKE THE FINAL
.*    EVALUATION OF THE USE OF THIS MACRO IN THEIR ENVIRONMENT.
.*
.*    NASPA MAKES NO WARRANTY, EXPRESSED OR IMPLIED, OF THE FITNESS
.*    FOR A PARTICULAR PURPOSE AS RELATES TO THE DOCUMENTATION,
.*    FUNCTION, RESULTS, OR PERFORMANCE OF THIS MACRO.
.*
.*    IMPLEMENTATION AND USE OF THIS MACRO CONSTITUTES A RELEASE
.*    FROM LIABILITY OF NASPA FOR ANY PROBLEMS ARISING FROM THE USE OF
.*    THIS MACRO AT THE USER'S INSTALLATION.
.*
.*    THIS MACRO IS MADE AVAILABLE BY NASPA WITHOUT CHARGE.
.*    RECIPIENTS ARE FREE TO MAKE THIS MACRO AVAILABLE TO OTHERS IN
.*    LIKE MANNER, PROVIDED THIS DISCLAIMER IS KEPT INTACT.  IT MAY
.*    NOT BE SOLD, TRADED, OR EXCHANGED FOR CASH, SERVICES, OR AS AN
.*    INCENTIVE FOR SERVICES AND/OR OTHER PURCHASES, NOR MAY IT BE
.*    INTEGRATED INTO ANY PROGRAM FOR SUCH USE.
.*
.*---------------------------------------------------------------------
.*---------------------------------------------------------------------
         MEND
