         MACRO
&NAME    SPFDEQ &SPFEDIT,&SPFDSN,&DSN,&MBR
.*---------------------------------------------------------------------
.*
.*       DEQ SPF RESOURCES
.*
.*---------------------------------------------------------------------
         LCLA  &X
         LCLC  &LIT,&REG,&LA
&X       SETA  &SYSNDX
&NAME    DS    0H
*----------------------------------------------------------------------
*        COPY DSNAME TO QNAME AREA
*----------------------------------------------------------------------
         MVC   SPFDYNAM(255),BLANKS      CLEAR       @MK  - SEE SPFENQ
         MVC   SPFDYNAM(44),&DSN        COPY DSN
         AIF   (T'&SPFEDIT EQ 'O').CCC
*----------------------------------------------------------------------
*        DEQ  &SPFEDIT   DSNAME       MBR
*----------------------------------------------------------------------
         AIF   (T'&MBR EQ 'O').AAA
         MVC   SPFDYNAM+44(L'&MBR),&MBR      COPY MBR NAME   @MK
&LMBR    SETA  44+L'&MBR                                @MK
         DEQ   (&SPFEDIT,SPFDYNAM,&LMBR,SYSTEMS),RET=HAVE   @MK
         AGO   .BBB
.AAA     ANOP
         DEQ   (&SPFEDIT,SPFDYNAM,52,SYSTEMS),RET=HAVE  @MK
.BBB     ANOP
         LTR   R15,R15
         BNZ   MZZZ&X
.CCC     ANOP
         AIF   (T'&SPFDSN EQ 'O').DDD
*----------------------------------------------------------------------
*        DEQ  &SPFEDIT   DSNAME
*----------------------------------------------------------------------
         DEQ   (&SPFEDIT,SPFDYNAM,44,SYSTEMS),RET=HAVE    @MK
.DDD     ANOP
MZZZ&X   EQU   *
.*---------------------------------------------------------------------
.*---------------------------------------------------------------------
.*
.*       FREEWARE: THIS MACRO IS DISTRIBUTED ON AN AS-IS BASIS
.*                 WITHOUT WARRANTY, EITHER EXPRESSED OR IMPLIED, BY:
.*
.*                 THE NATIONAL SYSTEMS PROGRAMMERS ASSOCIATION (NASPA)
.*                 P.O. BOX 21525
.*                 GREENFIELD, WI 53221
.*
.*
.*       MACRO WRITTEN BY:
.*
.*                 PRODUCTIVITY SYSTEMS, INC.
.*                 MILWAUKEE, WI
.*
.*---------------------------------------------------------------------
.*
.*    THIS MACRO HAS MET A BASIC SET OF PROGRAMMING AND
.*    DOCUMENTATION STANDARDS, BUT HAS NOT BEEN PROGRAM TESTED IN ANY
.*    FORMAL FASHION BY NASPA. THE USER IS EXPECTED TO MAKE THE FINAL
.*    EVALUATION OF THE USE OF THIS MACRO IN THEIR ENVIRONMENT.
.*
.*    NASPA MAKES NO WARRANTY, EXPRESSED OR IMPLIED, OF THE FITNESS
.*    FOR A PARTICULAR PURPOSE AS RELATES TO THE DOCUMENTATION,
.*    FUNCTION, RESULTS, OR PERFORMANCE OF THIS MACRO.
.*
.*    IMPLEMENTATION AND USE OF THIS MACRO CONSTITUTES A RELEASE
.*    FROM LIABILITY OF NASPA FOR ANY PROBLEMS ARISING FROM THE USE OF
.*    THIS MACRO AT THE USER'S INSTALLATION.
.*
.*    THIS MACRO IS MADE AVAILABLE BY NASPA WITHOUT CHARGE.
.*    RECIPIENTS ARE FREE TO MAKE THIS MACRO AVAILABLE TO OTHERS IN
.*    LIKE MANNER, PROVIDED THIS DISCLAIMER IS KEPT INTACT.  IT MAY
.*    NOT BE SOLD, TRADED, OR EXCHANGED FOR CASH, SERVICES, OR AS AN
.*    INCENTIVE FOR SERVICES AND/OR OTHER PURCHASES, NOR MAY IT BE
.*    INTEGRATED INTO ANY PROGRAM FOR SUCH USE.
.*
.*---------------------------------------------------------------------
.*---------------------------------------------------------------------
         MEND
