         MACRO
&NAME    SPFENQ &SPFEDIT,&SPFDSN,&DSN,&MBR
.*---------------------------------------------------------------------
.*   THE MEMBER IS ENQUEUED EXCLUSIVELY -
.*
.*   QNAME - &SPFEDIT                        @MK ALLOW SYMBOLIC QNAME
.*   RNAME - DATA SET NAME...       MEMBER
.*
.*   THE MEMBER NAME STARTS AT OFFSET +44 IN THE RNAME
.*---------------------------------------------------------------------
.*   THE DATA SET IS ENQUEUED EXCLUSIVELY DURING A SAVE -
.*
.*   QNAME - &SPFEDIT
.*   RNAME - (DATA SET NAME)
.*---------------------------------------------------------------------
         LCLA  &X
         LCLC  &LIT,&REG,&LA
&X       SETA  &SYSNDX
&NAME    DS    0H
*----------------------------------------------------------------------
*        COPY DSNAME TO RNAME AREA
*----------------------------------------------------------------------
         MVC   SPFDYNAM(255),BLANKS     CLEAR
         MVC   SPFDYNAM(44),&DSN        COPY DSN
         AIF   (T'&SPFEDIT EQ 'O').CCC
*----------------------------------------------------------------------
*        ENQ   SPFEDIT   DSNAME       MBR
*----------------------------------------------------------------------
         AIF   (T'&MBR EQ 'O').AAA
         MVC   SPFDYNAM+44(L'&MBR),&MBR   COPY MBR NAME
&LMBR    SETA  44+L'&MBR
         ENQ   (&SPFEDIT,SPFDYNAM,E,&LMBR,SYSTEMS),RET=USE
*    @MK CHANGED ENQ TO ALLOW SYMBOLIC QNAME AND VARIABLE LENGTH RNAME
         AGO   .BBB
.AAA     ANOP
         ENQ   (&SPFEDIT,SPFDYNAM,E,52,SYSTEMS),RET=USE     @MK
.BBB     ANOP
         LTR   R15,R15
         BNZ   MZZZ&X
.CCC     ANOP
         AIF   (T'&SPFDSN EQ 'O').DDD
*----------------------------------------------------------------------
*        ENQ   SPFEDIT   DSNAME
*----------------------------------------------------------------------
         ENQ   (&SPFEDIT,SPFDYNAM,E,44,SYSTEMS)        @MK
.DDD     ANOP
MZZZ&X   EQU   *
.*---------------------------------------------------------------------
.*---------------------------------------------------------------------
.*
.*       FREEWARE: THIS MACRO IS DISTRIBUTED ON AN AS-IS BASIS
.*                 WITHOUT WARRANTY, EITHER EXPRESSED OR IMPLIED, BY:
.*
.*                 THE NATIONAL SYSTEMS PROGRAMMERS ASSOCIATION (NASPA)
.*                 P.O. BOX 21525
.*                 GREENFIELD, WI 53221
.*
.*
.*       MACRO WRITTEN BY:
.*
.*                 PRODUCTIVITY SYSTEMS, INC.
.*                 MILWAUKEE, WI
.*
.*---------------------------------------------------------------------
.*
.*    THIS MACRO HAS MET A BASIC SET OF PROGRAMMING AND
.*    DOCUMENTATION STANDARDS, BUT HAS NOT BEEN PROGRAM TESTED IN ANY
.*    FORMAL FASHION BY NASPA. THE USER IS EXPECTED TO MAKE THE FINAL
.*    EVALUATION OF THE USE OF THIS MACRO IN THEIR ENVIRONMENT.
.*
.*    NASPA MAKES NO WARRANTY, EXPRESSED OR IMPLIED, OF THE FITNESS
.*    FOR A PARTICULAR PURPOSE AS RELATES TO THE DOCUMENTATION,
.*    FUNCTION, RESULTS, OR PERFORMANCE OF THIS MACRO.
.*
.*    IMPLEMENTATION AND USE OF THIS MACRO CONSTITUTES A RELEASE
.*    FROM LIABILITY OF NASPA FOR ANY PROBLEMS ARISING FROM THE USE OF
.*    THIS MACRO AT THE USER'S INSTALLATION.
.*
.*    THIS MACRO IS MADE AVAILABLE BY NASPA WITHOUT CHARGE.
.*    RECIPIENTS ARE FREE TO MAKE THIS MACRO AVAILABLE TO OTHERS IN
.*    LIKE MANNER, PROVIDED THIS DISCLAIMER IS KEPT INTACT.  IT MAY
.*    NOT BE SOLD, TRADED, OR EXCHANGED FOR CASH, SERVICES, OR AS AN
.*    INCENTIVE FOR SERVICES AND/OR OTHER PURCHASES, NOR MAY IT BE
.*    INTEGRATED INTO ANY PROGRAM FOR SUCH USE.
.*
.*---------------------------------------------------------------------
.*---------------------------------------------------------------------
         MEND
