         MACRO
&NAME    SPFRJUST &TO,&FROM
.*---------------------------------------------------------------------
         LCLA  &X
         LCLA  &LTO,&LFROM
&X       SETA  &SYSNDX
&LFROM   SETA  L'&FROM
&LTO     SETA  L'&TO
         AIF   ('&LTO' GE '&LFROM').AAA
         MNOTE 8,'*** TO FIELD MUST BE EQUAL TO OR GREATER THAN FROM '
         MEXIT
.AAA     ANOP
&NAME    DS    0H
*----------------------------------------------------------------------
*        RIGHT JUSTIFY
*----------------------------------------------------------------------
         MVC   &TO,BLANKS          INITIALIZE
         CLI   &FROM,C' '          ANY DATA ?
         BE    MZZZ&X              NO - OK
         XC    SPFTRT,SPFTRT       CLEAR
         MVI   SPFTRT+C' ',X'FF'   SET FOR A BLANK
         TRT   &FROM,SPFTRT        FIND BLANK
         BNZ   MAAA&X              FOUND IT
         LA    R1,&FROM+&LFROM     SET TO END OF FIELD
MAAA&X   EQU   *
         LA    R14,&FROM           START OF FIELD
         SR    R1,R14              LENGTH OF DATA
         LA    R15,&TO+&LTO        END OF FIELD
         SR    R15,R1              BACKUP LENGTH OF DATA
         BCTR  R1,R0               SUBTRACT 1 FOR 'EX' INSTRUCTION
         EX    R1,RJST&X           MOVE DATA - RIGHT JUSTIFIED
         B     MZZZ&X
RJST&X   MVC   0(0,R15),&FROM      MOVE DATA
MZZZ&X   EQU   *
.*---------------------------------------------------------------------
.*---------------------------------------------------------------------
.*
.*       FREEWARE: THIS MACRO IS DISTRIBUTED ON AN AS-IS BASIS
.*                 WITHOUT WARRANTY, EITHER EXPRESSED OR IMPLIED, BY:
.*
.*                 THE NATIONAL SYSTEMS PROGRAMMERS ASSOCIATION (NASPA)
.*                 P.O. BOX 21525
.*                 GREENFIELD, WI 53221
.*
.*
.*       MACRO WRITTEN BY:
.*
.*                 PRODUCTIVITY SYSTEMS, INC.
.*                 MILWAUKEE, WI
.*
.*---------------------------------------------------------------------
.*
.*    THIS MACRO HAS MET A BASIC SET OF PROGRAMMING AND
.*    DOCUMENTATION STANDARDS, BUT HAS NOT BEEN PROGRAM TESTED IN ANY
.*    FORMAL FASHION BY NASPA. THE USER IS EXPECTED TO MAKE THE FINAL
.*    EVALUATION OF THE USE OF THIS MACRO IN THEIR ENVIRONMENT.
.*
.*    NASPA MAKES NO WARRANTY, EXPRESSED OR IMPLIED, OF THE FITNESS
.*    FOR A PARTICULAR PURPOSE AS RELATES TO THE DOCUMENTATION,
.*    FUNCTION, RESULTS, OR PERFORMANCE OF THIS MACRO.
.*
.*    IMPLEMENTATION AND USE OF THIS MACRO CONSTITUTES A RELEASE
.*    FROM LIABILITY OF NASPA FOR ANY PROBLEMS ARISING FROM THE USE OF
.*    THIS MACRO AT THE USER'S INSTALLATION.
.*
.*    THIS MACRO IS MADE AVAILABLE BY NASPA WITHOUT CHARGE.
.*    RECIPIENTS ARE FREE TO MAKE THIS MACRO AVAILABLE TO OTHERS IN
.*    LIKE MANNER, PROVIDED THIS DISCLAIMER IS KEPT INTACT.  IT MAY
.*    NOT BE SOLD, TRADED, OR EXCHANGED FOR CASH, SERVICES, OR AS AN
.*    INCENTIVE FOR SERVICES AND/OR OTHER PURCHASES, NOR MAY IT BE
.*    INTEGRATED INTO ANY PROGRAM FOR SUCH USE.
.*
.*---------------------------------------------------------------------
.*---------------------------------------------------------------------
         MEND
