         MACRO
&NAME    SPFSUB  &DSN,&MBR
.*---------------------------------------------------------------------
.*       THIS MACRO WILL INVOKE THE TSO SUBMIT COMMAND FOR A
.*       SEQUENTIAL DATA SET OR A PDS AND MEMBER.
.*
.*---------------------------------------------------------------------
&NAME    DS    0H
         LCLA  &X
&X       SETA  &SYSNDX
*----------------------------------------------------------------------
*        SUBMIT THE JOB
*----------------------------------------------------------------------
         MVC   SPFDYNAM(256),BLANKS   SET TO BLANKS
         LA    R14,SPFDYNAM
         MVC   0(11,R14),=C'CMD(SUBMIT '
         LA    R14,11(R14)            BUMP
         MVI   0(R14),X'7D'           ADD A QUOTE
         LA    R14,1(R14)             BUMP
         MVC   0(44,R14),&DSN         MOVE THE DSN
         AIF   (T'&MBR EQ 'O').AAA
         XC    SPFTRT,SPFTRT          CLEAR
         MVI   SPFTRT+C' ',X'FF'      SET FOR A BLANK
         TRT   0(45,R14),SPFTRT       FIND END OF DSN
         LR    R14,R1                 COPY ADDR
         MVI   0(R14),C'('            ADD THE PAREN
         MVC   1(8,R14),&MBR          MOVE THE MEMBER NAME
         TRT   0(10,R14),SPFTRT       FIND END
         MVI   0(R1),C')'             ADD A PAREN
         MVI   1(R1),X'7D'            ADD A QUOTE
         AGO   .BBB
.AAA     ANOP
         XC    SPFTRT,SPFTRT          CLEAR
         MVI   SPFTRT+C' ',X'FF'      SET FOR A BLANK
         TRT   0(45,R14),SPFTRT       FIND END OF DSN
         MVI   0(R1),X'7D'            ADD A QUOTE
.BBB     ANOP
         MVC   SPFDYNIN,=F'100'
         CALL  ISPLINK,(SELECT,SPFDYNIN,SPFDYNAM),VL
.*---------------------------------------------------------------------
.*---------------------------------------------------------------------
.*
.*       FREEWARE: THIS MACRO IS DISTRIBUTED ON AN AS-IS BASIS
.*                 WITHOUT WARRANTY, EITHER EXPRESSED OR IMPLIED, BY:
.*
.*                 THE NATIONAL SYSTEMS PROGRAMMERS ASSOCIATION (NASPA)
.*                 P.O. BOX 21525
.*                 GREENFIELD, WI 53221
.*
.*
.*       MACRO WRITTEN BY:
.*
.*                 PRODUCTIVITY SYSTEMS, INC.
.*                 MILWAUKEE, WI
.*
.*---------------------------------------------------------------------
.*
.*    THIS MACRO HAS MET A BASIC SET OF PROGRAMMING AND
.*    DOCUMENTATION STANDARDS, BUT HAS NOT BEEN PROGRAM TESTED IN ANY
.*    FORMAL FASHION BY NASPA. THE USER IS EXPECTED TO MAKE THE FINAL
.*    EVALUATION OF THE USE OF THIS MACRO IN THEIR ENVIRONMENT.
.*
.*    NASPA MAKES NO WARRANTY, EXPRESSED OR IMPLIED, OF THE FITNESS
.*    FOR A PARTICULAR PURPOSE AS RELATES TO THE DOCUMENTATION,
.*    FUNCTION, RESULTS, OR PERFORMANCE OF THIS MACRO.
.*
.*    IMPLEMENTATION AND USE OF THIS MACRO CONSTITUTES A RELEASE
.*    FROM LIABILITY OF NASPA FOR ANY PROBLEMS ARISING FROM THE USE OF
.*    THIS MACRO AT THE USER'S INSTALLATION.
.*
.*    THIS MACRO IS MADE AVAILABLE BY NASPA WITHOUT CHARGE.
.*    RECIPIENTS ARE FREE TO MAKE THIS MACRO AVAILABLE TO OTHERS IN
.*    LIKE MANNER, PROVIDED THIS DISCLAIMER IS KEPT INTACT.  IT MAY
.*    NOT BE SOLD, TRADED, OR EXCHANGED FOR CASH, SERVICES, OR AS AN
.*    INCENTIVE FOR SERVICES AND/OR OTHER PURCHASES, NOR MAY IT BE
.*    INTEGRATED INTO ANY PROGRAM FOR SUCH USE.
.*
.*---------------------------------------------------------------------
.*---------------------------------------------------------------------
         MEND
