         MACRO
&NAME    SPFTBL# &PREF=CMN,&COPY=NO
.*---------------------------------------------------------------------
.*       THIS MACRO OBTAINS A 5 DIGIT SEQ NUMBER FROM THE PROFILE.
.*       THE NUMBER IS MAINLY USED FOR VIRTUAL TABLES, HOWEVER, IT
.*       MAY BE USED FOR ANYTHING YOU WISH.
.*       @MK - MADE TABLE NUMBER VARIABLE NAME VARIABLE
.*---------------------------------------------------------------------
         LCLA  &X
&X       SETA  &SYSNDX
&NAME    DS    0H
*----------------------------------------------------------------------
*        TABLE NUMBER
*----------------------------------------------------------------------
         AIF   ('&COPY' EQ 'YES').AAA
         SPFVDEF 5,(&PREF.TBL#)
         SPFVGET (&PREF.TBL#),PROFILE
         AGO   .BBB
.AAA     ANOP
         SPFVCOPY (&PREF.TBL#,5)
.BBB     ANOP
         OI    &PREF.TBL#+4,X'F0'    INSURE NUMERIC
         PACK  SPFDBWRD,&PREF.TBL#   PACK IT
         AP    SPFDBWRD,=P'1'     ADD 1
         UNPK  &PREF.TBL#,SPFDBWRD+5(3)   UNPACK IT
         OI    &PREF.TBL#+4,X'F0'    SET SIGN
         AIF   ('&COPY' EQ 'NO').CCC
         SPFVREPL (&PREF.TBL#,5)
.CCC     ANOP
         SPFVPUT (&PREF.TBL#),PROFILE
.*---------------------------------------------------------------------
.*---------------------------------------------------------------------
.*
.*       FREEWARE: THIS MACRO IS DISTRIBUTED ON AN AS-IS BASIS
.*                 WITHOUT WARRANTY, EITHER EXPRESSED OR IMPLIED, BY:
.*
.*                 THE NATIONAL SYSTEMS PROGRAMMERS ASSOCIATION (NASPA)
.*                 P.O. BOX 21525
.*                 GREENFIELD, WI 53221
.*
.*
.*       MACRO WRITTEN BY:
.*
.*                 PRODUCTIVITY SYSTEMS, INC.
.*                 MILWAUKEE, WI
.*
.*---------------------------------------------------------------------
.*
.*    THIS MACRO HAS MET A BASIC SET OF PROGRAMMING AND
.*    DOCUMENTATION STANDARDS, BUT HAS NOT BEEN PROGRAM TESTED IN ANY
.*    FORMAL FASHION BY NASPA. THE USER IS EXPECTED TO MAKE THE FINAL
.*    EVALUATION OF THE USE OF THIS MACRO IN THEIR ENVIRONMENT.
.*
.*    NASPA MAKES NO WARRANTY, EXPRESSED OR IMPLIED, OF THE FITNESS
.*    FOR A PARTICULAR PURPOSE AS RELATES TO THE DOCUMENTATION,
.*    FUNCTION, RESULTS, OR PERFORMANCE OF THIS MACRO.
.*
.*    IMPLEMENTATION AND USE OF THIS MACRO CONSTITUTES A RELEASE
.*    FROM LIABILITY OF NASPA FOR ANY PROBLEMS ARISING FROM THE USE OF
.*    THIS MACRO AT THE USER'S INSTALLATION.
.*
.*    THIS MACRO IS MADE AVAILABLE BY NASPA WITHOUT CHARGE.
.*    RECIPIENTS ARE FREE TO MAKE THIS MACRO AVAILABLE TO OTHERS IN
.*    LIKE MANNER, PROVIDED THIS DISCLAIMER IS KEPT INTACT.  IT MAY
.*    NOT BE SOLD, TRADED, OR EXCHANGED FOR CASH, SERVICES, OR AS AN
.*    INCENTIVE FOR SERVICES AND/OR OTHER PURCHASES, NOR MAY IT BE
.*    INTEGRATED INTO ANY PROGRAM FOR SUCH USE.
.*
.*---------------------------------------------------------------------
.*---------------------------------------------------------------------
         MEND
