         MACRO
&NAME    SPFVCOPY &FLD,&MODE=MOVE,&DC=YES
.*---------------------------------------------------------------------
.*       THIS MACRO INVOKES THE SPF VCOPY SERVICE.
.*
.*---------------------------------------------------------------------
&NAME    DS    0H
         LCLA  &X,&B,&N,&LL
&X       SETA  &SYSNDX
&N       SETA  N'&FLD
         LA    R1,LEN&X
*-------------------------------------------------------------------
&B       SETA  2
.AAA     ANOP
         MVC   0(4,R1),=A(&FLD(&B))
         AIF   (&B EQ &N).BBB
         LA    R1,4(R1)
&B       SETA  &B+2
         AGO   .AAA
.BBB     ANOP
         CALL  ISPLINK,(VCOPY,FLD&X,LEN&X,&FLD(1),&MODE),VL
         B     MAAA&X
*-------------------------------------------------------------------
&B       SETA  1
         AIF   (&N GT 2).CCC
&LL      SETA  K'&FLD(1)+2
FLD&X    DC    CL&LL'(&FLD(1))'
         AGO   .FFF
.*--------------------------------------------------------------------
.CCC     ANOP
&LL      SETA  K'&FLD(&B)+2
FLD&X    DC    CL&LL'(&FLD(&B)'
.DDD     ANOP
&B       SETA  &B+2
         AIF   (&B EQ &N-1).EEE
&LL      SETA  K'&FLD(&B)+1
         DC    CL&LL'&FLD(&B)'
         AGO   .DDD
.EEE     ANOP
&LL      SETA  K'&FLD(&B)+1
         DC    CL&LL'&FLD(&B))'
*-------------------------------------------------------------------
.FFF     ANOP
         AIF   ('&DC' EQ 'NO').HHH
&B       SETA  1
.GGG     ANOP
&FLD(&B) DC    CL&FLD(&B+1)' '
         AIF   (&B EQ &N-1).HHH
&B       SETA  &B+2
         AGO   .GGG
*-------------------------------------------------------------------
.HHH     ANOP
&B       SETA  2
LEN&X    DS    0F
.III     ANOP
         DC    A(&FLD(&B))
         AIF   (&B EQ &N).DONE
&B       SETA  &B+2
         AGO   .III
.DONE    ANOP
MAAA&X   DS    0H
.*---------------------------------------------------------------------
.*---------------------------------------------------------------------
.*
.*       FREEWARE: THIS MACRO IS DISTRIBUTED ON AN AS-IS BASIS
.*                 WITHOUT WARRANTY, EITHER EXPRESSED OR IMPLIED, BY:
.*
.*                 THE NATIONAL SYSTEMS PROGRAMMERS ASSOCIATION (NASPA)
.*                 P.O. BOX 21525
.*                 GREENFIELD, WI 53221
.*
.*
.*       MACRO WRITTEN BY:
.*
.*                 PRODUCTIVITY SYSTEMS, INC.
.*                 MILWAUKEE, WI
.*
.*---------------------------------------------------------------------
.*
.*    THIS MACRO HAS MET A BASIC SET OF PROGRAMMING AND
.*    DOCUMENTATION STANDARDS, BUT HAS NOT BEEN PROGRAM TESTED IN ANY
.*    FORMAL FASHION BY NASPA. THE USER IS EXPECTED TO MAKE THE FINAL
.*    EVALUATION OF THE USE OF THIS MACRO IN THEIR ENVIRONMENT.
.*
.*    NASPA MAKES NO WARRANTY, EXPRESSED OR IMPLIED, OF THE FITNESS
.*    FOR A PARTICULAR PURPOSE AS RELATES TO THE DOCUMENTATION,
.*    FUNCTION, RESULTS, OR PERFORMANCE OF THIS MACRO.
.*
.*    IMPLEMENTATION AND USE OF THIS MACRO CONSTITUTES A RELEASE
.*    FROM LIABILITY OF NASPA FOR ANY PROBLEMS ARISING FROM THE USE OF
.*    THIS MACRO AT THE USER'S INSTALLATION.
.*
.*    THIS MACRO IS MADE AVAILABLE BY NASPA WITHOUT CHARGE.
.*    RECIPIENTS ARE FREE TO MAKE THIS MACRO AVAILABLE TO OTHERS IN
.*    LIKE MANNER, PROVIDED THIS DISCLAIMER IS KEPT INTACT.  IT MAY
.*    NOT BE SOLD, TRADED, OR EXCHANGED FOR CASH, SERVICES, OR AS AN
.*    INCENTIVE FOR SERVICES AND/OR OTHER PURCHASES, NOR MAY IT BE
.*    INTEGRATED INTO ANY PROGRAM FOR SUCH USE.
.*
.*---------------------------------------------------------------------
.*---------------------------------------------------------------------
         MEND
