         MACRO
&NAME    SPFVPUT &FLD,&TYPE
.*---------------------------------------------------------------------
.*       THIS MACRO INVOKES THE SPF VPUT SERVICE.
.*
.*---------------------------------------------------------------------
&NAME    DS    0H
         LCLC  &AA
         LCLA  &X,&A,&B,&N,&LL
&X       SETA  &SYSNDX
&N       SETA  N'&FLD
         CALL  ISPLINK,(VPUT,FLD&X,&TYPE),VL
         B     MAAA&X
&B       SETA  1
         AIF   (&N GT 1).BBB
&LL      SETA  K'&FLD(&B)+2
FLD&X    DC    CL&LL'(&FLD(&B))'
         AGO   .DONE
.*---------------------------------------------------------------------
.BBB     ANOP
&LL      SETA  K'&FLD(&B)+2
FLD&X    DC    CL&LL'(&FLD(&B)'
.CCC     ANOP
&B       SETA  &B+1
         AIF   (&B EQ &N).DDD
&LL      SETA  K'&FLD(&B)+1
         DC    CL&LL'&FLD(&B)'
         AGO   .CCC
.DDD     ANOP
&LL      SETA  K'&FLD(&B)+1
         DC    CL&LL'&FLD(&B))'
.DONE    ANOP
MAAA&X   DS    0H
.*---------------------------------------------------------------------
.*---------------------------------------------------------------------
.*
.*       FREEWARE: THIS MACRO IS DISTRIBUTED ON AN AS-IS BASIS
.*                 WITHOUT WARRANTY, EITHER EXPRESSED OR IMPLIED, BY:
.*
.*                 THE NATIONAL SYSTEMS PROGRAMMERS ASSOCIATION (NASPA)
.*                 P.O. BOX 21525
.*                 GREENFIELD, WI 53221
.*
.*
.*       MACRO WRITTEN BY:
.*
.*                 PRODUCTIVITY SYSTEMS, INC.
.*                 MILWAUKEE, WI
.*
.*---------------------------------------------------------------------
.*
.*    THIS MACRO HAS MET A BASIC SET OF PROGRAMMING AND
.*    DOCUMENTATION STANDARDS, BUT HAS NOT BEEN PROGRAM TESTED IN ANY
.*    FORMAL FASHION BY NASPA. THE USER IS EXPECTED TO MAKE THE FINAL
.*    EVALUATION OF THE USE OF THIS MACRO IN THEIR ENVIRONMENT.
.*
.*    NASPA MAKES NO WARRANTY, EXPRESSED OR IMPLIED, OF THE FITNESS
.*    FOR A PARTICULAR PURPOSE AS RELATES TO THE DOCUMENTATION,
.*    FUNCTION, RESULTS, OR PERFORMANCE OF THIS MACRO.
.*
.*    IMPLEMENTATION AND USE OF THIS MACRO CONSTITUTES A RELEASE
.*    FROM LIABILITY OF NASPA FOR ANY PROBLEMS ARISING FROM THE USE OF
.*    THIS MACRO AT THE USER'S INSTALLATION.
.*
.*    THIS MACRO IS MADE AVAILABLE BY NASPA WITHOUT CHARGE.
.*    RECIPIENTS ARE FREE TO MAKE THIS MACRO AVAILABLE TO OTHERS IN
.*    LIKE MANNER, PROVIDED THIS DISCLAIMER IS KEPT INTACT.  IT MAY
.*    NOT BE SOLD, TRADED, OR EXCHANGED FOR CASH, SERVICES, OR AS AN
.*    INCENTIVE FOR SERVICES AND/OR OTHER PURCHASES, NOR MAY IT BE
.*    INTEGRATED INTO ANY PROGRAM FOR SUCH USE.
.*
.*---------------------------------------------------------------------
.*---------------------------------------------------------------------
         MEND
