         MACRO ,                                                  ONL02
&NAME    QAUTHCK &CODE                                            ONL02
.*****************************************************************ONL02
.*                                                                ONL02
.* MACRO NAME = QAUTHCK                                           ONL02
.*                                                                ONL02
.* MODIFICATION ID = ONL02                                        ONL02
.*                                                                ONL02
.* DESCRIPTIVE NAME =  FUNCTION AUTHORIZATION CHECK REQUEST       ONL02
.*                                                                ONL02
.* AUTHOR = ROBERT M. JINKINS                                     ONL02
.*          OAK RIDGE NATIONAL LABORATORY                         ONL02
.*          BLDG. 4500-N  MS-259                                  ONL02
.*          P.O. BOX X                                            ONL02
.*          OAK RIDGE, TENNESSEE  37830                           ONL02
.*                                                                ONL02
.*          PHONE: (615) 574-7208/5300                            ONL02
.*                  FTS  624-7208/5300                            ONL02
.*                                                                ONL02
.*          SHARE INSTALLATION CODE = OR                          ONL02
.*                                                                ONL02
.* DATE WRITTEN = JUNE 83                                         ONL02
.*                                                                ONL02
.* FUNCTION = THIS MACRO SETS THE AUTHORIZATION CHECK REQUEST     ONL02
.*    CODE AND CALLS THE AUTHORIZATION ROUTINE (AUTH CSECT) TO    ONL02
.*    VALIDATE THE REQUEST.                                       ONL02
.*                                                                ONL02
.* CHANGE ACTIVITY = NONE                                         ONL02
.*                                                                ONL02
.*****************************************************************ONL02
         AIF   ('&CODE'(1,1) EQ '(').REG                          ONL02
         AIF   ('&CODE' EQ 'QASTART').CODEOK                      ONL02
         AIF   ('&CODE' EQ 'QAEND').CODEOK                        ONL02
         AIF   ('&CODE' EQ 'QAALLOC').CODEOK                      ONL02
         AIF   ('&CODE' EQ 'QABEFOPN').CODEOK                     ONL02
         AIF   ('&CODE' EQ 'QAAFTOPN').CODEOK                     ONL02
         AIF   ('&CODE' EQ 'QASPOOL').CODEOK                      ONL02
         AIF   ('&CODE' EQ 'QAPARSE').CODEOK                      ONL02
         AIF   ('&CODE' EQ 'QAFINDJ').CODEOK                      ONL02
         AIF   ('&CODE' EQ 'QAJCL').CODEOK                        ONL02
         AIF   ('&CODE' EQ 'QAJLOG').CODEOK                       ONL02
         AIF   ('&CODE' EQ 'QAJMSG').CODEOK                       ONL02
         AIF   ('&CODE' EQ 'QALIST').CODEOK                       ONL02
         AIF   ('&CODE' EQ 'QAJHIST').CODEOK                      ONL02
         AIF   ('&CODE' EQ 'QADD').CODEOK                         ONL02
         AIF   ('&CODE' EQ 'QAPDDB').CODEOK                       ONL02
         AIF   ('&CODE' EQ 'QASYSOUT').CODEOK                     ONL02
         AIF   ('&CODE' EQ 'QASYSLOG').CODEOK                     ONL02
         MNOTE 8,'QAUTHCK MACRO - INVALID REQUEST CODE'           ONL02
         MEXIT ,                                                  ONL02
.REG     ANOP  ,                                                  ONL02
&NAME    STC   &CODE(1),QACODE     SET AUTHORIZATION REQUEST CODE ONL02
         AGO   .CALL                                              ONL02
.CODEOK  ANOP  ,                                                  ONL02
&NAME    MVI   QACODE,&CODE        SET AUTHORIZATION REQUEST CODE ONL02
.CALL    ANOP  ,                                                  ONL02
         L     R15,=V(AUTH)        ADDR OF AUTHORIZATION CHECK RTNONL02
         BALR  R14,R15             CALL AUTHORIZATION CHECK RTN   ONL02
         MEND  ,                                                  ONL02
