         MACRO ,                                                  ONL02
&NAME    QSCE  &CMDTEXT,&ADDR,&FNC=0,&TYPE=0,&USER=0              ONL02
.*****************************************************************ONL02
.*                                                                ONL02
.* MACRO NAME = QSCE                                              ONL02
.*                                                                ONL02
.* MODIFICATION ID = ONL02                                        ONL02
.*                                                                ONL02
.* DESCRIPTIVE NAME =  QUEUE SUB-COMMAND ENTRY                    ONL02
.*                                                                ONL02
.* AUTHOR = ROBERT M. JINKINS                                     ONL02
.*          OAK RIDGE NATIONAL LABORATORY                         ONL02
.*          BLDG. 4500-N  MS-259                                  ONL02
.*          P.O. BOX X                                            ONL02
.*          OAK RIDGE, TENNESSEE  37830                           ONL02
.*                                                                ONL02
.*          PHONE: (615) 574-7208/5300                            ONL02
.*                  FTS  624-7208/5300                            ONL02
.*                                                                ONL02
.*          SHARE INSTALLATION CODE = OR                          ONL02
.*                                                                ONL02
.* DATE WRITTEN = JUNE 83                                         ONL02
.*                                                                ONL02
.* FUNCTION = THIS MACRO DEFINES PARSE TABLE ENTRIES FOR QUEUE    ONL02
.*    SUB-COMMANDS.                                               ONL02
.*                                                                ONL02
.* SYNTAX:  LLLL QSCE XXXX,AAAA,FNC=CCCC,TYPE=TTTT,USER=UUUU      ONL02
.*                                                                ONL02
.*   WHERE:                                                       ONL02
.*     LLLL - IS AN OPTIONL LABEL.                                ONL02
.*     XXXX - IS THE SUB-COMMAND NAME.  THE NAME MUST BE          ONL02
.*            ENCLOSED IN APOSTROPHES IF SPECIAL CHARACTERS       ONL02
.*            ARE USED.  THE ASSEMBLED LENGTH MUST NOT EXCEED     ONL02
.*            FOUR CHARACTERS.                                    ONL02
.*     AAAA - IS A V-TYPE ADDRESS CONSTANT FOR THE ROUTINE        ONL02
.*            WHICH WILL PROCESS THE SUB-COMMAND.                 ONL02
.*     CCCC - IS AN OPTIONAL FUNCTION CODE USED BY THE SUB--      ONL02
.*            COMMAND PROCESSING ROUTINE.                         ONL02
.*     TTTT - IS AN OPTIONAL COMMAND TYPE CLASSIFICATION          ONL02
.*            USED FOR SUB-COMMAND AUTHORIZATION.  THE            ONL02
.*            EQUATES FOR USE WITH THIS OPERAND MAY BE            ONL02
.*            FOUND IN THE QCOMMON DSECT.                         ONL02
.*     UUUU - IS THE SAME AS 'TTTT' ABOVE, BUT IS INTENDED        ONL02
.*            FOR AUTHORIZATION CHECKING SPECIFIC TO YOUR         ONL02
.*            INSTALLATION.                                       ONL02
.*                                                                ONL02
.* CHANGE ACTIVITY = NONE                                         ONL02
.*                                                                ONL02
.*****************************************************************ONL02
         LCLC  &CMD                                               ONL02
&CMD     SETC  '&CMDTEXT'                                         ONL02
         AIF   ('&CMD'(1,1) EQ '''').SKIP                         ONL02
&CMD     SETC  ''''.'&CMDTEXT'.''''                               ONL02
.SKIP    ANOP  ,                                                  ONL02
&NAME    DC    0F'0',CL4&CMD,V(&ADDR),Y(&FNC),AL1(&TYPE,&USER)    ONL02
         MEND  ,                                                  ONL02
