++USERMOD (A$$W017)   /*
      THIS USERMOD IS TO INSTALL THE
      PCS NUMBER VALIDATION SVC

      SVC = 226 - TYPE 4

      MOD HISTORY:
          07/27/88 - INITIAL BUILD
                                                     07/27/88 BRM  */.
++VER (Z038) FMID(A$$SVCS) .
++JCLIN .
//A$$W017 JOB WC07N0323,'W1-5311  CR SINGER'
//LPASVC  EXEC LINKS,
// PARM='NCAL,LIST,XREF,LET,REUS,RENT,AMODE=31,RMODE=ANY,AC=1',
//    UNIT='3380',SER=IPLXXX,N=SYS2,NAME=HSSLPA,P1=' ',
//    MOD=,P2=' ',OBJ=OBJPDS01,CLASS=T
//SYSLIN   DD  *
   INCLUDE SYSPUNCH(WCSVC226)
   NAME WCSVC226(R)
/*
++MAC (PCSVER) DISTLIB(ASAMPLIB) SYSLIB(SYS3MAC).
         MACRO
&NAME    PCSVER  &PCS,&LOGID,&MF=I
.**********************************************************************
.*       VALIDATE GENERAL DYNAMICS PCS ACCOUNTING NUMBERS             *
.**********************************************************************
.*                                                                    *
.*       PCSVER  PCS@,LOGID@,MF=                                      *
.*                                                                    *
.*    PCS    - ADDRESS OF PCS NUMBER TO BE VALIDATED.                 *
.*             THIS PARAMETER IS REQUIRED.                            *
.*                                                                    *
.*    LOGID  - ADDRESS OF LOGON-ID TO BE VALIDATED IN                 *
.*             CONJUCTION WITH THE PCS NUMBER.                        *
.*             THIS PARAMETER IS OPTIONAL.                            *
.*                                                                    *
.*    MF=I         -INCLUDE FORM.                                     *
.*       L         -LIST FORM                                         *
.*       (E,PARM@) -EXECUTE FORM. PARM@ IS ADDRESS OF PARAMETER       *
.*                  LIST.                                             *
.*                                                                    *
.*    ALL ADRESSES MAY BE AN RX-TYPE OR REGISTER-TYPE.                *
.*                                                                    *
.**********************************************************************
.*
         LCLA  &P#SW,&P1SW,&P2SW
         LCLC  &RR0,&RR4
.*
.*             &P#SW SETTINGS ARE
.*              1  -  PCS PARM PASSED
.*              2  -  PCS AND LOGON-ID PARMS PASSED
.*
.*             &P1SW SETTINGS ARE (PCS PARAMETER):
.*              1  -  ADDRESS TYPE IS REGISTER
.*              2  -  ADDRESS TYPE IS RX-TYPE
.*
.*
.*             &P2SW SETTINGS ARE (LOGOIN-ID PARAMETER):
.*              1  -  ADDRESS TYPE IS REGISTER
.*              2  -  ADDRESS TYPE IS RX-TYPE
.*
&P#SW    SETA  0                        SET DEFAULT
&P1SW    SETA  0                        SET DEFAULT REGISTER ADDR
&P2SW    SETA  0                        SET DEFAULT REGISTER ADDR
.* *****************************************************************
.* PARSE PARAMETERS
.* *****************************************************************
         AIF   ('&PCS' EQ '').CHKLOGS
&P1SW    SETA  1
&P#SW    SETA  1
         AIF   ('&PCS'(1,1) EQ '(').CHKLOGS
&P1SW    SETA  2
.CHKLOGS ANOP
         AIF   ('&LOGID' EQ '').CHKMFS
&P2SW    SETA  1
&P#SW    SETA  2
         AIF   ('&LOGID'(1,1) EQ '(').CHKMFS
&P2SW    SETA  2
.*
.CHKMFS  ANOP
         AIF   ('&MF' EQ 'I').MFINCL    IF MF=E GOTO .MFINCL
         AIF   ('&MF' EQ 'L').MFLIST    IF MF=E GOTO .MFLIST
         AIF   (N'&MF NE 2).BADPARM     IF MF= INVALID GOTO .BADPARM
         AIF   ('&MF(1)' EQ 'E').MFEXEC IF MF=E GOTO .MFEXEC
         AGO   .BADPARM
.*
.MFINCL  ANOP
.*
         AIF   (&P#SW EQ 0).NOPCS
.*
         CNOP  0,4                ALIGN TO FULLWORD BOUNDARY
.*
         AIF   (&P#SW EQ 1).DOP1             ONLY PCS PARM PASSED
.* *****************************************************************
.*       PCS AND LOGON-ID PARAMETERS PASSED TO MACRO
.* *****************************************************************
         AIF   (&P1SW NE &P2SW).DOMIX        ADDR-TYPE MIXED ?
         AIF   (&P1SW EQ 1).DOREG            ADDR-TYPES REGISTER ?
         LA    1,&PCS             -> PCS NUMBER
         ST    1,*+16             STORE PCS ADDR IN PARM
         LA    1,&LOGID           -> LOGON-ID
         ST    1,*+12             STORE LOGON-ID ADDR IN PARM
         AGO   .P2END
.DOREG   ANOP
         ST    &PCS,*+12          STORE PCS ADDR IN PARM
         ST    &LOGID,*+12        STORE LOGON-ID ADDR IN PARM
         AGO   .P2END
.DOMIX   ANOP
         AIF   (&P1SW EQ 1).DOMIX2
         LA    1,&PCS             -> PCS NUMBER
         ST    1,*+12             STORE PCS ADDR IN PARM
         ST    &LOGID,*+12        STORE LOGON-ID ADDR IN PARM
         AGO   .P2END
.DOMIX2  ANOP
         ST    &PCS,*+16          STORE PCS ADDR IN PARM
         LA    1,&LOGID           -> LOGON-ID
         ST    1,*+12             STORE LOGON-ID ADDR IN PARM
         AGO   .P2END
.P2END   ANOP
         BAL   1,*+12             PARM ADDR IN REG 1
&NAME    DS    F                  PARM1 - PCS ->
         DS    F                  PARM2 - LOGON-ID ->
         SVC   226                VALIDATE PCS NUMBER
         MEXIT
.* *******************************************************************
.*       ONLY PCS PARAMETER PASSED TO MACRO
.* *******************************************************************
.DOP1    ANOP
         AIF   (&P1SW EQ 1).P1ST             IF REG PASSED GO TO P1ST
.*
.*       PCS PARAMETER IS AN RX-TYPE ADDRESS
.*
         LA    1,&PCS             -> PCS NUMBER
         ST    1,*+8              STORE PCS ADDR IN PARM
         AGO   .P1END
.P1ST    ANOP
.*
.*       PCS PARAMETER IS A REGISTER
.*
         ST    &PCS,*+8           STORE PCS ADDR IN PARM
         AGO   .P1END
.*
.P1END   ANOP
         BAL   1,*+12             PARM ADDR IN REG 1
&NAME    DS    F                  PARM 1
         DC    A(0)               PARM 2
         SVC   226                VALIDATE PCS NUMBER
.*
         MEXIT
.* *******************************************************************
.* MF=L SPECIFIED
.* *******************************************************************
.MFLIST  ANOP
         AIF   ('&NAME' EQ '').NONAME
         AIF   (&P#SW EQ 0).NOPCS
         AIF   (&P1SW EQ 1 OR &P2SW EQ 1).NORX
         AIF   (&P#SW EQ 2).MFLTWO
.* **********************************
.* BUILD PARAMETER LIST OF PCS@     *
.* **********************************
&NAME    DC    A(&PCS)            PARM 1
         DC    A(0)               PARM 2
.*
         MEXIT
.*
.MFLTWO  ANOP
.* ******************************************
.* BUILD PARAMETER LIST OF PCS@ AND LOGONID *
.* ******************************************
&NAME    DC    A(&PCS)            PARM 1
         DC    A(&LOGID)          PARM 2
.*
         MEXIT
.*
.* *****************************************************************
.*       PCS AND LOGON-ID PARAMETERS PASSED TO MACRO
.* *****************************************************************
         AIF   (&P1SW NE &P2SW).DOMIX        ADDR-TYPE MIXED ?
         AIF   (&P1SW EQ 1).DOREG            ADDR-TYPES REGISTER ?
         AGO   .MFINCL
.* *******************************************************************
.* MF=E SPECIFIED
.* *******************************************************************
.*
.MFEXEC  ANOP
         AIF   (&P#SW EQ 0).MFEGO
         AIF   (&P1SW EQ 2).MFEP1RX          IF PCS@ = RX TYPE
.* **********************************
.* PCS@ = REGISTER TYPE             *
.* **********************************
         AIF   ('&MF(2)'(1,1) EQ '(').P1RX1RR IF PARM@ = REG TYPE
         ST    &PCS,&MF(2)        STORE PCS ADDRESS IN PARM AREA
         AIF   (&P#SW EQ 2).MFEP2GO
         AGO   .MFEGO
.P1RX1RR ANOP
&RR0     SETC  '0'.'&MF(2)'
         ST    &PCS,&RR0          STORE PCS ADDRESS IN PARM AREA
         AIF   (&P#SW EQ 2).MFEP2GO
         AGO   .MFEGO
.MFEP1RX ANOP
.* **********************************
.* PCS@ = RX TYPE                   *
.* **********************************
         AIF   ('&MF(2)'(1,1) EQ '(').P1RX2RX IF PARM@ = REG TYPE
         LA    1,&PCS             GET PCS ADDRESS
         ST    1,&MF(2)           STORE PCS ADDRESS IN PARM
         AIF   (&P#SW EQ 2).MFEP2GO
         AGO   .MFEGO
.P1RX2RX ANOP
&RR0     SETC  '0'.'&MF(2)'
         LA    1,&PCS             GET PCS ADDRESS
         ST    1,&RR0             STORE PCS ADDRESS IN PARM
         AIF   (&P#SW EQ 2).MFEP2GO
         AGO   .MFEGO
.*
.MFEP2GO ANOP
         AIF   (&P2SW EQ 2).MFEP2RX          IF LOGID@ = RX TYPE
.* **********************************
.* LOGID@ = REGISTER TYPE           *
.* **********************************
         AIF   ('&MF(2)'(1,1) EQ '(').P2RX1RR IF PARM@ = REG TYPE
         ST    &LOGID,&MF(2)+4    STORE LOGON-ID ADDRESS IN PARM AREA
         AGO   .MFEGO
.P2RX1RR ANOP
&RR4     SETC  '4'.'&MF(2)'
         ST    &LOGID,&RR4        STORE LOGON-ID ADDRESS IN PARM AREA
         AGO   .MFEGO
.MFEP2RX ANOP
.* **********************************
.* LOGID@ = RX TYPE                 *
.* **********************************
         AIF   ('&MF(2)'(1,1) EQ '(').P2RX2RX IF PARM@ = REG TYPE
         LA    1,&LOGID           GET PCS ADDRESS
         ST    1,&MF(2)+4         STORE PCS ADDRESS IN PARM
         AGO   .MFEGO
.P2RX2RX ANOP
&RR4     SETC  '4'.'&MF(2)'
         LA    1,&LOGID           GET PCS ADDRESS
         ST    1,&RR4             STORE PCS ADDRESS IN PARM
         AGO   .MFEGO
.*
.MFEGO   ANOP
         AIF   ('&MF(2)'(1,1) EQ '(').MFEREG   IF REGISTER BRANCH OUT
         LA    1,&MF(2)           PARM ADDR IN REG 1
&NAME    SVC   226                VALIDATE PCS NUMBER
         MEXIT
.MFEREG  ANOP
         AIF   ('&MF(2)'(1,3) EQ '(1)').MFESVC
         LR    1,&MF(2)           PARM ADDR IN REG 1
.MFESVC  ANOP
&NAME    SVC   226                VALIDATE PCS NUMBER
         MEXIT
.*
.NOPCS   ANOP
         MNOTE  8,'*** PCS PARAMETER MISSING ***'
         MEXIT
.*
.NORX    ANOP
         MNOTE  8,'***MF=L: PARAMETERS MUST BE RX-TYPE ADDR ***'
         MEXIT
.*
.NONAME  ANOP
         MNOTE  8,'*** LABEL NAME IS MISSING ***'
         MEXIT
.*
.BADPARM ANOP
         MNOTE  8,'*** INVALID MF PARAMETER SPECIFIED ***'
         MEXIT
.*
.NOEPARM ANOP
         MNOTE  8,'*** PARAMETER ADDRESS ON MF=E MISSING ***'
         MEXIT
.*
.FINI    ANOP
         MEXIT
         MEND
++SRC (WCSVC226) DISTLIB(ASRCLIB)  .
*
*   SEVERAL INSTREAM MACROS ARE FIRST. REAL CODE STARTS AT LINE 143800
*
         MACRO
         $POPI
.*********************************************************************
.*********************************************************************
.*       1.  $POPI    POP LABELS FOR THE IF-ELSE-ENDIF MACROS        *
.*********************************************************************
         GBLC  &$LBL
         GBLA  &$LIFNDX,&$LVLI,&$STACKI(50)
&$LBL    SETC  '$LIF&$STACKI(&$LVLI)'
&$LVLI   SETA  &$LVLI-1
         MEND
         MACRO
         $PUSHI
.*********************************************************************
.*********************************************************************
.*       1.  $PUSHI    PUSH LABELS FOR THE IF-ELSE-ENDIF MACROS      *
.*********************************************************************
         GBLC  &$LBL
         GBLA  &$LIFNDX,&$LVLI,&$STACKI(50)
.*
.*       1. RETURNS A NEW LABEL IN $LBL.
.*       2. SETS THIS LABEL ON TOP OF THE STACK
.*
&$LIFNDX SETA  &$LIFNDX+1     INCREMENT INDEX
&$LVLI   SETA  &$LVLI+1       INCREMANT LEVEL
&$LBL    SETC  '$LIF&$LIFNDX'      SET LABEL VALUE
&$STACKI(&$LVLI) SETA &$LIFNDX     SET CURRENT INDEX ON CURRENT LEVEL
         MEND
         MACRO
         $UPSEL
.*********************************************************************
.* $UPSEL    PUSH LABELS FOR THE SELECT-WHEN-OTHERWISE MACROS        *
.*********************************************************************
         GBLC  &$LBSEL
         GBLA  &$SELNDX,&$LVSEL,&$STKSEL(50)
.*
.*       1. RETURNS A NEW LABEL IN $LBSEL.
.*       2. SETS THIS LABEL ON TOP OF THE STACK
.*
&$SELNDX SETA  &$SELNDX+1           INCREMENT INDEX
&$LVSEL  SETA  &$LVSEL+1            INCREMANT LEVEL
&$LBSEL  SETC  '$ESEL&$SELNDX'      SET LABEL VALUE
&$STKSEL(&$LVSEL) SETA &$SELNDX     SET CURRENT INDEX ON CURRENT LEVEL
         MEND
         MACRO
         $UPWHEN
.*********************************************************************
.* $UPWHEN   PUSH LABELS FOR THE SELECT-WHEN-OTHERWISE MACROS        *
.*********************************************************************
         GBLC  &$LBWIN
         GBLA  &$WINDEX,&$LVWIN,&$STKWIN(50)
.*
.*       1. RETURNS A NEW LABEL IN $LBWIN.
.*       2. SETS THIS LABEL ON TOP OF THE STACK
.*
&$WINDEX SETA  &$WINDEX+1           INCREMENT INDEX
&$LVWIN  SETA  &$LVWIN+1            INCREMANT LEVEL
&$LBWIN  SETC  '$WHEN&$WINDEX'      SET LABEL VALUE
&$STKWIN(&$LVWIN) SETA &$WINDEX     SET CURRENT INDEX ON CURRENT LEVEL
         MEND
         MACRO
         ELSE
.*********************************************************************
.*********************************************************************
.*       ELSE                                                        *
.*********************************************************************
         GBLC  &$LBL
         GBLA  &$LIFNDX,&$LVLI,&$STACKI(50)
         LCLC  &X
         $POPI
&X       SETC  '&$LBL'
         $PUSHI
         B     &$LBL
&X       DS    0H
         MEND
         MACRO
         ENDIF
.*********************************************************************
.*********************************************************************
.*       ENDIF                                                       *
.*********************************************************************
         GBLC  &$LBL
         GBLA  &$LIFNDX,&$LVLI,&$STACKI(50)
         $POPI
&$LBL    DS    0H
         MEND
         MACRO
         ENDSEL
.*********************************************************************
.*       ENDSEL  EXIT POINT FOR SELECT/WHEN/ENDSEL CONSTRUCT         *
.*               1. GENERATE ENDSELECT LABEL                         *
.*********************************************************************
         GBLC  &$LBSEL
         GBLA  &$SELNDX,&$LVSEL,&$STKSEL(50)
         LCLC  &X
&X       SETC  '&$LBSEL'
&X       DS    0H
         MEND
         MACRO
         ENDWHEN
.*********************************************************************
.*       ENDWHEN EXIT POINT FOR WHEN/ENDWHEN CONSTRUCT               *
.*               1. BRANCH TO ENDSELECT LABEL                        *
.*********************************************************************
         GBLC  &$LBSEL
         GBLA  &$SELNDX,&$LVSEL,&$STKSEL(50)
         B     &$LBSEL
         MEND
         MACRO
.*********************************************************************
.*       EXIT         USED TO RETURN TO CALLERS                      *
.*             1. EXIT 8               --RETURN CODE IS 8            *
.*             2. EXIT (15)            --RETURN CODE IN REG15        *
.*             3. EXIT 8,FREE,R3,LEN   --RETURN CODE IS 8,           *
.*                                       FREEMAIN AREA ADDR BY R3,   *
.*                                       LEN = FULLWORD AREA NAME    *
.*                                             CONTAINING LL TO FREE *
.*********************************************************************
&NAME    EXIT  &RC,&FREE,&REG=,&SVLEN=
         LCLC  &REG1,&REG2,&REGSW,&RCSW
&REG1    SETC  '14'
&REG2    SETC  '12'
&REGSW   SETC  ' '
&RCSW    SETC  ' '
         SPACE
         AIF   ('&REG' EQ '').NOREG
         AIF   (N'&REG GT 2).REGPL
         AIF   (N'&REG EQ 1).REGONE
&REG1    SETC  '&REG(1)'
&REG2    SETC  '&REG(2)'
         AGO   .NOREG
.REGPL   ANOP
         MNOTE 4,'***** MORE THAN 2 ''REG'' OPERANDS, ENTRY IGNORED'
         AGO   .NOREG
.REGONE  ANOP
&REG1    SETC  '&REG(1)'
&REGSW   SETC  '1'
.NOREG   ANOP
&NAME    L     13,4(,13)                GET ADDR OF PREV SAVE CHAIN
         STM   15,1,16(13)              SAVE PARAM REGS
         AIF   ('&FREE' EQ '').RCCK     IS FREE PARAMETER PRESENT
         AIF   ('&FREE' EQ 'FREE').DOF  IS FREE PARAMETER VALID
         MNOTE 8,******** ''FREE'' PARAMETER IS NOT VALID AND IS IGNOREX
               D
         AGO   .RCCK
.DOF     ANOP
         L     1,8(,13)                 GET SAVE AREA ADDRESS
         AIF   ('&SVLEN' EQ '').DOFA
         L     0,&SVLEN                 LENGTH TO FREE IN REG 0
         AGO   .DOFB
.DOFA    ANOP
         LA    0,72                     LENGTH TO FREE
.DOFB    ANOP
         FREEMAIN R,LV=(0),A=(1)        ISSUE FREEMAIN
.RCCK    ANOP
         XC    8(4,13),8(13)            DE-CHAIN CURRENT ENTRY
         AIF   ('&RC' EQ '').NORC
         AIF   ('&RC'(1,1) EQ '(').REGRC
         AIF   ('&RC' GT '4095').BADRC
&RCSW    SETC  '1'
         AGO   .NORC
.REGRC   ANOP
&RCSW    SETC  '2'
         AGO   .NORC
.BADRC   ANOP
         MNOTE 4,'***** RETURN CODE (RC) GREATER THAN 4095, ENTRY IGNORX
               ED'
         AGO   .NORC
.*
.NORC    ANOP
         AIF   ('&RCSW' NE ' ').TYPE2
         AIF   ('&REGSW' EQ '1').TYPE1A
         RETURN (&REG1,&REG2)
         SPACE
         MEXIT
.TYPE1A  ANOP
         RETURN (&REG1)
         SPACE
         MEXIT
.*
.TYPE2   ANOP
         AIF   ('&RCSW' NE '1').TYPE3
         AIF   ('&REGSW' EQ '1').TYPE2A
         RETURN (&REG1,&REG2),RC=&RC
         SPACE
         MEXIT
.TYPE2A  ANOP
         RETURN (&REG1),RC=&RC
         SPACE
         MEXIT
.*
.TYPE3   ANOP
         AIF   ('&RC(1)' EQ '15').IS15
         AIF   ('&RC(1)' EQ 'R15').IS15
         LR    15,&RC(1)                SHIFT RETURN CODE TO REG 15
         AGO   .RTN3
.IS15    ANOP
         L     15,16(,13)               RESTORE REG 15
.RTN3    AIF   ('&REGSW' EQ '1').TYPE3A
         RETURN (&REG1,&REG2),RC=(15)
         SPACE
         MEXIT
.TYPE3A  ANOP
         RETURN (&REG1),RC=(15)
         SPACE
         MEND
         MACRO
&LABEL   GOTO  &LB,&TEST,&R
&LABEL   JUMP  &LB,&TEST,&R
         MEND
         MACRO
         IF    &P1,&P2,&P3,&P4
.*********************************************************************
.*       1.  IF    CLI,A,NE,B                                        *
.*       2.  IF    (CLI,A,NE,B),AND,(CLC,A,E,B)                      *
.*       3.  IF    (CLI,A,NE,B),OR,(CLC,A,E,B)                       *
.*********************************************************************
         LCLC  &SYM
         GBLC  &$LBL
         GBLA  &$LIFNDX,&$LVLI,&$STACKI(50)
         AIF   ('&P1'(1,1) EQ '(').COMPLEX
         AIF   ('&P3' NE 'EQ').CHKEQ2
.*********************************************************************
.*                                        CONVERT 'EQ' TO 'E'        *
.*********************************************************************
&SYM     SETC  'E '
         AGO   .SIMPLE
.CHKEQ2  ANOP
         AIF   ('&P3' NE '=').CHKGT1
.*********************************************************************
.*                                        CONVERT '=' TO 'E'         *
.*********************************************************************
&SYM     SETC  'E '
         AGO   .SIMPLE
.CHKGT1  ANOP
         AIF   ('&P3' NE 'GT').CHKGT2
.*********************************************************************
.*                                        CONVERT 'GT' TO 'H'        *
.*********************************************************************
&SYM     SETC  'H '
         AGO   .SIMPLE
.CHKGT2  ANOP
         AIF   ('&P3' NE '>').CHKLT1
.*********************************************************************
.*                                        CONVERT '>'  TO 'H'        *
.*********************************************************************
&SYM     SETC  'H '
         AGO   .SIMPLE
.CHKLT1  ANOP
         AIF   ('&P3' NE 'LT').CHKLT2
.*********************************************************************
.*                                        CONVERT 'LT' TO 'L'        *
.*********************************************************************
&SYM     SETC  'L '
         AGO   .SIMPLE
.CHKLT2  ANOP
         AIF   ('&P3' NE '<').CHKON
.*********************************************************************
.*                                        CONVERT '<'  TO 'L'        *
.*********************************************************************
&SYM     SETC  'L '
         AGO   .SIMPLE
.CHKON   ANOP
         AIF   ('&P3' NE 'ON').CHKOFF
.*********************************************************************
.*                                       CONVERT 'ON'  TO 'O'        *
.*********************************************************************
&SYM     SETC  'O '
         AGO   .SIMPLE
.CHKOFF  ANOP
         AIF   ('&P3' NE 'OFF').CHKDFLT
.*********************************************************************
.*                                      CONVERT 'OFF'  TO 'Z'        *
.*********************************************************************
&SYM     SETC  'Z '
         AGO   .SIMPLE
.CHKDFLT ANOP
.*********************************************************************
.*                              BRANCH CODE = SUPPLIED PARAMETER     *
.*********************************************************************
&SYM     SETC  '&P3'
.SIMPLE  ANOP
         &P1   &P2,&P4
         B&SYM *+8
         $PUSHI
         B     &$LBL
         MEXIT
.COMPLEX ANOP
         AIF   ('&P1(3)' NE 'EQ').AAAEQ2
.*********************************************************************
.*                                        CONVERT 'EQ' TO 'E'        *
.*********************************************************************
&AAA     SETC  'E '
         AGO   .BBBEQ1
.AAAEQ2  ANOP
         AIF   ('&P1(3)' NE '=').AAAGT1
.*********************************************************************
.*                                        CONVERT '=' TO 'E'         *
.*********************************************************************
&AAA     SETC  'E '
         AGO   .BBBEQ1
.AAAGT1  ANOP
         AIF   ('&P1(3)' NE 'GT').AAAGT2
.*********************************************************************
.*                                        CONVERT 'GT' TO 'H'        *
.*********************************************************************
&AAA     SETC  'H '
         AGO   .BBBEQ1
.AAAGT2  ANOP
         AIF   ('&P1(3)' NE '>').AAALT1
.*********************************************************************
.*                                        CONVERT '>'  TO 'H'        *
.*********************************************************************
&AAA     SETC  'H '
         AGO   .BBBEQ1
.AAALT1  ANOP
         AIF   ('&P1(3)' NE 'LT').AAALT2
.*********************************************************************
.*                                        CONVERT 'LT' TO 'L'        *
.*********************************************************************
&AAA     SETC  'L '
         AGO   .BBBEQ1
.AAALT2  ANOP
         AIF   ('&P1(3)' NE '<').AAAON
.*********************************************************************
.*                                        CONVERT '<'  TO 'L'        *
.*********************************************************************
&AAA     SETC  'L '
         AGO   .BBBEQ1
.AAAON   ANOP
         AIF   ('&P1(3)' NE 'ON').AAAOFF
.*********************************************************************
.*                                       CONVERT 'ON'  TO 'O'        *
.*********************************************************************
&AAA     SETC  'O '
         AGO   .BBBEQ1
.AAAOFF  ANOP
         AIF   ('&P1(3)' NE 'OFF').AAADFLT
.*********************************************************************
.*                                      CONVERT 'OFF'  TO 'Z'        *
.*********************************************************************
&AAA     SETC  'Z '
         AGO   .BBBEQ1
.AAADFLT ANOP
.*********************************************************************
.*                                BRANCH COND = SUPPLIED PARAMETER   *
.*********************************************************************
&AAA     SETC  '&P1(3)'
         AGO   .BBBEQ1
.BBBEQ1  ANOP
         AIF   ('&P3(3)' NE 'EQ').BBBEQ2
.*********************************************************************
.*                                        CONVERT 'EQ' TO 'E'        *
.*********************************************************************
&BBB     SETC  'E '
         AGO   .CMPCONT
.BBBEQ2  ANOP
         AIF   ('&P3(3)' NE '=').BBBGT1
.*********************************************************************
.*                                        CONVERT '=' TO 'E'         *
.*********************************************************************
&BBB     SETC  'E '
         AGO   .CMPCONT
.BBBGT1  ANOP
         AIF   ('&P3(3)' NE 'GT').BBBGT2
.*********************************************************************
.*                                        CONVERT 'GT' TO 'H'        *
.*********************************************************************
&BBB     SETC  'H '
         AGO   .CMPCONT
.BBBGT2  ANOP
         AIF   ('&P3(3)' NE '>').BBBLT1
.*********************************************************************
.*                                        CONVERT '>'  TO 'H'        *
.*********************************************************************
&BBB     SETC  'H '
         AGO   .CMPCONT
.BBBLT1  ANOP
         AIF   ('&P3(3)' NE 'LT').BBBLT2
.*********************************************************************
.*                                        CONVERT 'LT' TO 'L'        *
.*********************************************************************
&BBB     SETC  'L '
         AGO   .CMPCONT
.BBBLT2  ANOP
         AIF   ('&P3(3)' NE '<').BBBON
.*********************************************************************
.*                                        CONVERT '<'  TO 'L'        *
.*********************************************************************
&BBB     SETC  'L '
         AGO   .CMPCONT
.BBBON   ANOP
         AIF   ('&P3(3)' NE 'ON').BBBOFF
.*********************************************************************
.*                                       CONVERT 'ON'  TO 'O'        *
.*********************************************************************
&BBB     SETC  'O '
         AGO   .CMPCONT
.BBBOFF  ANOP
         AIF   ('&P3(3)' NE 'OFF').BBBDFLT
.*********************************************************************
.*                                      CONVERT 'OFF'  TO 'Z'        *
.*********************************************************************
&BBB     SETC  'Z '
         AGO   .CMPCONT
.BBBDFLT ANOP
.*********************************************************************
.*                         BRANCH CODE = SUPPLIED PARAMETER          *
.*********************************************************************
&BBB     SETC  '&P3(3)'
         AGO   .CMPCONT
.CMPCONT ANOP
         AIF   ('&P2' EQ 'AND').CAND
         AIF   ('&P2' EQ 'OR').COR
         MNOTE *,'CONNECTOR MUST BE ''AND'' OR ''OR'''
         MEXIT
.CAND    ANOP
         &P1(1) &P1(2),&P1(4)
         B&AAA *+8
         $PUSHI
         B     &$LBL
         &P3(1) &P3(2),&P3(4)
         B&BBB *+8
         B     &$LBL
         MEXIT
.COR     ANOP
         &P1(1) &P1(2),&P1(4)
         B&AAA  $T&SYSNDX
         &P3(1) &P3(2),&P3(4)
         B&BBB  $T&SYSNDX
         $PUSHI
         B     &$LBL
$T&SYSNDX DS   0H
         MEXIT
         MEND
         MACRO
&LABEL   JUMP  &LB,&TEST,&R
         LCLA  &N
         LCLC  &LBL,&OP1,&OP2
         AIF   (T'&LABEL EQ 'O').NOLBL
&LABEL   EQU   *
.NOLBL   ANOP
         AIF   (T'&R EQ 'O').SETLBL
&LBL     SETC  '0(0,&LB)'
         AGO   .CONT
.SETLBL  ANOP
&LBL     SETC  '&LB'
&N       SETA  N'&LB
         AIF   (&N GT 1).IND
         AGO   .CONT
.IND     ANOP
         AIF   ('&LB(1)'(1,1) EQ '(').LA1
         AIF   ('&LB(1)'(1,2) EQ '0(').LA2
         AGO   .NOLA1
.LA1     ANOP
&OP1     SETC  '0'.'&LB(1)'
         AGO   .DOLA1
.LA2     ANOP
&OP1     SETC  '&LB(1)'
.DOLA1   ANOP
         SETRA 15,&OP1
         AGO   .NXT1
.NOLA1   ANOP
         SETRA 15,&LB(1)
.NXT1    ANOP
         AIF   (T'&LB(2) EQ 'F').FW
         AIF   (T'&LB(2) EQ 'H').HW
         AIF   ('&LB(2)'(1,1) EQ '(').LA3
         AIF   ('&LB(2)'(1,2) EQ '0(').LA4
         AGO   .NOLA2
.LA3     ANOP
&OP2     SETC  '0'.'&LB(2)'
         AGO   .DOLA2
.LA4     ANOP
&OP2     SETC  '&LB(2)'
.DOLA2   ANOP
         SETRA 14,&OP2
         AGO   .NXT2
.NOLA2   ANOP
         SETRA 14,&LB(2)
.NXT2    ANOP
         AGO   .IND2
.FW      ANOP
         SETR  14,&LB(2)
         AGO   .IND2
.HW      ANOP
         SETR  14,&LB(2)
.IND2    ANOP
         DECR  14
         SLL   14,2
         INCRR 15,14
&LBL     SETC  '0(0,15)'
.CONT    ANOP
         AIF   (T'&TEST EQ 'O').UNCBR
         AIF   ('&TEST' EQ 'FALSE').BNEQ
         AIF   ('&TEST' EQ 'TRUE').BEQ
         AIF   ('&TEST' EQ 'PLUS').BPL
         AIF   ('&TEST' EQ 'MINUS').BM
         AIF   ('&TEST' EQ 'ZERO').BZ
         AIF   ('&TEST' EQ 'LOW').BL
         AIF   ('&TEST' EQ 'HIGH').BH
         AIF   ('&TEST' EQ 'GT' OR '&TEST' EQ 'HT').BH
         AIF   ('&TEST' EQ 'LT').BL
         AIF   ('&TEST' EQ 'NGT' OR '&TEST' EQ 'NHT').BNH
         AIF   ('&TEST' EQ 'NLT').BNL
         AIF   ('&TEST' EQ 'NLOW').BNL
         AIF   ('&TEST' EQ 'NHIGH').BNH
         AIF   ('&TEST' EQ 'NPLUS').BNPL
         AIF   ('&TEST' EQ 'NMINUS').BNM
         AIF   ('&TEST' EQ 'NZERO').BNZ
         AIF   ('&TEST' EQ 'EQUAL').BEQ
         AIF   ('&TEST' EQ 'NEQUAL').BNEQ
         AIF   ('&TEST'(1,3) EQ 'ONE').BONE
         AIF   ('&TEST'(1,3) EQ 'MIX').BMIX
         AIF   ('&TEST'(1,4) EQ 'NONE').BNONE
         AIF   ('&TEST'(1,4) EQ 'NMIX').BNMIX
         AIF   ('&TEST' EQ '=').BEQ
         AIF   ('&TEST' EQ '>').BH
         AIF   ('&TEST' EQ '<').BL
         AIF   ('&TEST' EQ 'NOT=').BNEQ
         AIF   ('&TEST' EQ 'NOT>').BNH
         AIF   ('&TEST' EQ 'NOT<').BNL
         AIF   ('&TEST' EQ '¬=').BNEQ
         AIF   ('&TEST' EQ '¬>').BNH