          MACRO
          $$DBASE
          GBLB  &BASELESS
          GBLC  &QFSSTIT
          GBLC  &VERSION
          AIF    (&BASELESS).BL
          MEXIT
.BL       ANOP
&NAME     SETC  '&SYSECT'
DATA&NAME      DC  0D'0'
         DC    AL2(START&SYSNDX-*),C'SRC:&NAME '
         AIF   ('&QFSSTIT' EQ '').NOTIT
         MNOTE 0,&QFSSTIT
         DC    C&QFSSTIT
.NOTIT   DC    C' &SYSDATE '
         DC    C'&VERSION'
         DC    X'00'
START&SYSNDX EQU *
         DC    0D'0'
$$BASE         LOCTR
               LTORG
DATA&NAME.END  EQU DATA&NAME+4095
         MEND
