         MACRO
&NAME    #BAS  &R1,&A2
.**********************************************************************
.*                                                                    *
.* ZIL Version 1.3 (c) 1989 The Charles Stark Draper Laboratory Inc.  *
.*                     All rights reserved.                           *
.*                                                                    *
.**********************************************************************
         GBLB  &ZILXA
         #ZSYS
         AIF   (&ZILXA).BAS
&NAME    BAL   &R1,&A2
         AGO   .MEND
.BAS     ANOP
&NAME    BAS   &R1,&A2
.MEND    MEND
