         MACRO
&NAME    #BASR &R1,&R2
.**********************************************************************
.*                                                                    *
.* ZIL Version 1.3 (c) 1989 The Charles Stark Draper Laboratory Inc.  *
.*                     All rights reserved.                           *
.*                                                                    *
.**********************************************************************
         GBLB  &ZILXA
         #ZSYS
         AIF   (&ZILXA).BASR
&NAME    BALR  &R1,&R2
         AGO   .MEND
.BASR    ANOP
&NAME    BASR  &R1,&R2
.MEND    MEND
