         MACRO
&NAME    #EATM &VALUE
.**********************************************************************
.*                                                                    *
.* ZIL Version 1.3 (c) 1989 The Charles Stark Draper Laboratory Inc.  *
.*                     All rights reserved.                           *
.*                                                                    *
.**********************************************************************
.*                                                                    *
.* THIS MACRO GENERATES A SINGLE PRECISION FLOATING POINT ATOM.       *
.*                                                                    *
.**********************************************************************
&NAME    DS    0A
         DC    YL1(##FLONUM),AL3(0),E'&VALUE'
         MEND
