         MACRO
&NAME    #GETMAIN &R,&LV=,&LOC=
.**********************************************************************
.*                                                                    *
.* ZIL Version 1.3 (c) 1989 The Charles Stark Draper Laboratory Inc.  *
.*                     All rights reserved.                           *
.*                                                                    *
.**********************************************************************
         GBLB  &ZILXA
         #ZSYS
         AIF   (N'&LV EQ 1).LV1
         AIF   (N'&LV EQ 2).LV2
         MNOTE 12,'Invalid #GETMAIN LV parameter: &LV'
         MEXIT
.LV1     ANOP
         AIF   (&ZILXA).XA1
&NAME    GETMAIN &R,LV=&LV
         AGO   .MEND
.XA1     ANOP
&NAME    GETMAIN &R,LV=&LV,LOC=&LOC
         AGO   .MEND
.LV2     ANOP
         AIF   (&ZILXA).XA2
&NAME    GETMAIN &R,LV=(&LV(1),&LV(2))
         AGO   .MEND
.XA2     ANOP
&NAME    GETMAIN &R,LV=(&LV(1),&LV(2)),LOC=&LOC
         AGO   .MEND
.MEND    MEND
