         MACRO
&NAME    #GETC
.**********************************************************************
.*                                                                    *
.* ZIL Version 1.3 (c) 1989 The Charles Stark Draper Laboratory Inc.  *
.*                     All rights reserved.                           *
.*                                                                    *
.**********************************************************************
.*                                                                    *
.* THIS MACRO GENERATES CALLS TO ZILGETC.                             *
.*                                                                    *
.* NOTE THE NON-STANDARD INTERFACE.                                   *
.*                                                                    *
.**********************************************************************
&NAME    L     #2,ZLCGETC               GET ADDRESS OF ZILGETC
         #BASR #14,#2                   CALL ZILGETC TO GET A CHARACTER
         MEND
