         MACRO
&NAME    #RTBL
.**********************************************************************
.*                                                                    *
.* ZIL Version 1.3 (c) 1989 The Charles Stark Draper Laboratory Inc.  *
.*                     All rights reserved.                           *
.*                                                                    *
.**********************************************************************
.*
.* SUPPORT FOR "$$" LISP 1.5 SYNTAX REMOVED.
.*
.**********************************************************************
         AIF   ('&NAME' NE '').OK
         MNOTE 12,'READ TABLE NAME REQUIRED'
         MEXIT
.OK      ANOP
*
* THE READ TABLE
*
&NAME    DC    256YL1(00)          READ TABLE
         ORG   &NAME+C'('
         DC    YL1(##LEFTP)        LEFT PARENTHESIS
         ORG   &NAME+C')'
         DC    YL1(##RIGHTP)       RIGHT PARENTHESIS
         ORG   &NAME+C' '
         DC    YL1(##BLANK)        BLANK
         ORG   &NAME+C'.'
         DC    YL1(##PERIOD)       PERIOD
         ORG   &NAME+C'¢'
         DC    YL1(##CONT)         CENT SIGN
         ORG   &NAME+C';'
         DC    YL1(##SEMI)         SEMICOLON
         ORG   &NAME+C'\' X'E0'
         DC    YL1(##ESCAPE)       BACKSLASH
         ORG   &NAME+C'|' X'4F'
         DC    YL1(##BAR)          VERTICAL BAR
         ORG   &NAME+C'"'
         DC    YL1(##DQUOTE)       DOUBLE QUOTE MARK
.******* ORG   &NAME+C':'
.******* DC    YL1(##COLON)        PACKAGE DELIMITER
.******* ORG   &NAME+C'/'
.******* DC    YL1(##SLASH)        RATIONAL NUMBER MARKER
         ORG   ,                   END OF TABLE
         MEND
