         MACRO
&NAME    #ZERR &MSG
.**********************************************************************
.*                                                                    *
.* ZIL Version 1.3 (c) 1989 The Charles Stark Draper Laboratory Inc.  *
.*                     All rights reserved.                           *
.*                                                                    *
.**********************************************************************
.*                                                                    *
.* THIS MACRO GENERATES CALLS TO ZILERR. THE PARAMETER MUST BE A      *
.* CHARACTER STRING MESSAGE SUITABLE FOR DISPLAY VIA A TPUT MACRO     *
.* INSTRUCTION, WHOSE ASSEMBLER-DEFINED LENGTH IS VALID, E.G.         *
.*                                                                    *
.*         #ZERR ZIL0000                                              *
.*       ...                                                          *
.* ZIL0000 DC  C'ZIL0000 YOU FOULED UP.'                              *
.*                                                                    *
.**********************************************************************
.*                                                                    *
.* NOTE: IN GENERAL, YOU SHOULD USE THE #ERR MACRO INSTEAD OF #ZERR.  *
.* #ERR ALLOWS YOU TO INCLUDE VARIABLE INFORMATION, INCLUDING LISP    *
.* OBJECTS, IN THE MESSAGE, AND ALSO DIRECTS IT TO STANDARD OUTPUT    *
.* INSTEAD OF THE TERMINAL/CONSOLE.                                   *
.*                                                                    *
.**********************************************************************
.*                                                                    *
.* NOTE: AT SOME POINT IT WOULD BE DESIRABLE TO MODIFY THIS MACRO TO  *
.* INSURE THAT REGISTER 12 POINTED TO THE BEGINNING OF THE MODULE.    *
.* TO DO THIS, A GLOBAL SET SYMBOL IN #ZBEG OR #ZSAV WOULD BE USEFUL. *
.*                                                                    *
.* BUT WHO CARES?  #ERR IS MORE IMPORTANT THAN #ZERR ANYHOW.          *
.*                                                                    *
.**********************************************************************
&NAME    LA    #1,&MSG             GET ADDRESS OF MESSAGE
         LA    #0,L'&MSG           GET LENGTH OF MESSAGE
         L     #15,ZLCERR          GET ADDRESS OF ZLCERR ROUTINE
         BR    #15                 GO TO ERROR PROCESSING ROUTINE
         MEND
