./ ADD NAME=$$$COJRB 0104-82333-86143-2103-00017-00015-00017-JEFBRO
.*
.**********************************************************************
.*                                                                    *
.*   COPYRIGHT (C) 19XX BY JEFFREY R. BROIDO.  ALL RIGHTS RESERVED.   *
.*                                                                    *
.*   LICENSE IS HEREBY GRANTED TO WESTERN UNION TELEGRAPH COMPANY     *
.*   AND ITS AFFILIATES TO USE THIS MACRO.  HOWEVER, IT MUST NOT      *
.*   BE SOLD, GIVEN, OR OTHERWISE DISTRIBUTED TO ANY OTHER            *
.*   COMPANY OR DATA CENTER WITHOUT PRIOR WRITTEN PERMISSION OF:      *
.*                                                                    *
.*                                                                    *
.*                                 JEFFREY R. BROIDO                  *
.*                                 broidoj@gmail.com                  *
.*                                                                    *
.***********************************************************************
.*
./ ADD NAME=EMACRO   0104-84300-84301-1418-00026-00030-00011-ANDERSO
         MACRO
&NAME    EMACRO &PLIST,&PROCESS
.*
.*       This macro issues an ISREDIT MACRO command to identify
.* an assembler program as an edit macro
.*
         LCLC  &CP,&OPT
&CP      SETC  ''
&OPT     SETC  'PROCESS'
.LUP     AIF   ('&PROCESS' EQ '&CP').GO
         AIF   ('&PROCESS' EQ '&CP.PR').GO
         AIF   ('&PROCESS' EQ '&CP.PROC').GO
         AIF   ('&PROCESS' EQ '&CP.PROCESS').GO
         AIF   ('&OPT' EQ 'NOPROCESS').MERR
&CP      SETC  'NO'
&OPT     SETC  'NOPROCESS'
         AGO   .LUP
.*
.GO      ANOP
&NAME    ISRED 'MACRO &PLIST &OPT'
         MEXIT
.*
.MERR    ANOP
         MNOTE 8,'ILLEGAL PARAMETER.'
         MNOTE '    USE ''PROCESS'' OR ''NOPROCESS''.'
         MEND
./ ADD NAME=GCALL    0116-82225-82333-1754-00913-00272-00913-ZADSJBR
         MACRO
&NAME    GCALL &AAB=AAB,&GPARMS=GPARMS
         LCLA  &CURSOR,&IX
         LCLC  &W
.*
.**********************************************************************
.*                                                                    *
.*   COPYRIGHT (C) 1982 BY JEFFREY R. BROIDO.  ALL RIGHTS RESERVED.   *
.*                                                                    *
.*   LICENSE IS HEREBY GRANTED TO AMERICAN INTERNATIONAL GROUP AND    *
.*   ITS AFFILIATES TO USE THIS MACRO.  HOWEVER, IT MUST NOT BE BE    *
.*   SOLD, GIVEN, OR OTHERWISE DISTRIBUTED TO ANY OTHER COMPANY OR    *
.*   DATA CENTER WITHOUT PRIOR WRITTEN PERMISSION OF:                 *
.*                                                                    *
.*                                                                    *
.*                                 JEFFREY R. BROIDO                  *
.*                                 broidoj@gmail.com                  *
.*                                                                    *
.**********************************************************************
.*
.*
.**********************************************************************
.*                                                                    *
.*  GCALL - MACRO TO CALL GDDM ROUTINES VIA THE SYSTEM PROGRAMMER     *
.*     INTERFACE.  FORMAT IS:  GCALL MNEMONIC,PARM,PARM, ETC.  IT     *
.*     IS ASSUMED THAT YOUR APPLICATION ANCHOR BLOCK IS AT            *
.*     ADDRESS AAB (OR SPECIFY AAB=).  YOU MUST ALSO HAVE DEFINED     *
.*     A SERIES OF FULLWORDS AT LABEL GPARMS FOR THE PARMS TO BE      *
.*     STORED IN, AT LEAST ONE WORD FOR EACH POSSIBLE PARM.  YOU      *
.*     MUST ALSO DEFINE A WORD AT LABEL ADMASPP THAT CONTAINS THE     *
.*     ADDRESS OF ROUTINE ADMASP (EITHER LOADED OR LINKED).  SEE      *
.*     MANUAL SC33-0101-1 FOR EXPLANATION.  VERSION 1.00 WRITTEN      *
.*     AT A.I.G.  BY J.  BROIDO, 8/11/82.                             *
.*                                                                    *
.**********************************************************************
.*
         AIF   (N'&SYSLIST NE 0).NOT0
         MNOTE 4,'GCALL NEEDS AT LEAST ONE PARM; RESULT IS NOP.'
         MEXIT
.NOT0    ANOP
&NAME    LA    1,&GPARMS           POINT TO EXTERNAL PARM LIST.
         LA    0,&AAB              MOVE ADDRESS OF APPLICATION ...
         ST    0,0(,1)             ... ANCHOR BLOCK TO PARM LIST.
&W       SETC  '&SYSLIST(1)'
         AIF   ('&W' NE 'FSTRCE').#001
         LA    0,=X'00020000'      SPECIFY TRACE.
         ST    0,4(,1)             SAVE ITS POINTER IN PARM LIST.
         AGO   .PP
.#001    AIF   ('&W' NE 'FSEXIT').#002
         LA    0,=X'00030000'      SPECIFY SET ERROR EXIT.
         ST    0,4(,1)             SAVE ITS POINTER IN PARM LIST.
         AGO   .PP
.#002    AIF   ('&W' NE 'FSQERR').#003
         LA    0,=X'00040000'      SPECIFY QUERY LAST ERROR.
         ST    0,4(,1)             SAVE ITS POINTER IN PARM LIST.
         AGO   .PP
.#003    AIF   ('&W' NE 'SPINIT').#004
         LA    0,=X'00050000'      SPECIFY SPI SPECIAL INIT.
         ST    0,4(,1)             SAVE ITS POINTER IN PARM LIST.
         AGO   .PP
.#004    AIF   ('&W' NE 'ESLIB').#005
         LA    0,=X'08142000'      SPECIFY DEFINE LIBRARY.
         ST    0,4(,1)             SAVE ITS POINTER IN PARM LIST.
         AGO   .PP
.#005    AIF   ('&W' NE 'ESPCB').#006
         LA    0,=X'081C1000'      SPECIFY DEFINE PCB.
         ST    0,4(,1)             SAVE ITS POINTER IN PARM LIST.
         AGO   .PP
.#006    AIF   ('&W' NE 'FSTERM').#007
         LA    0,=X'0C000000'      SPECIFY TERMINATION.
         ST    0,4(,1)             SAVE ITS POINTER IN PARM LIST.
         AGO   .PP
.#007    AIF   ('&W' NE 'FSINIT').#008
         LA    0,=X'0C000001'      SPECIFY INITIALIZATION.
         ST    0,4(,1)             SAVE ITS POINTER IN PARM LIST.
         AGO   .PP
.#008    AIF   ('&W' NE 'FSRNIT').#009
         LA    0,=X'0C000002'      SPECIFY RE-INITIALIZATION.
         ST    0,4(,1)             SAVE ITS POINTER IN PARM LIST.
         AGO   .PP
.#009    AIF   ('&W' NE 'DSOPEN').#010
         LA    0,=X'0C000200'      SPECIFY OPEN DEVICE.
         ST    0,4(,1)             SAVE ITS POINTER IN PARM LIST.
         AGO   .PP
.#010    AIF   ('&W' NE 'DSCLS').#011
         LA    0,=X'0C000201'      SPECIFY CLOSE DEVICE.
         ST    0,4(,1)             SAVE ITS POINTER IN PARM LIST.
         AGO   .PP
.#011    AIF   ('&W' NE 'DSUSE').#012
         LA    0,=X'0C000202'      SPECIFY DEVICE USAGE.
         ST    0,4(,1)             SAVE ITS POINTER IN PARM LIST.
         AGO   .PP
.#012    AIF   ('&W' NE 'DSDROP').#013
         LA    0,=X'0C000203'      SPECIFY DROP DEVICE.
         ST    0,4(,1)             SAVE ITS POINTER IN PARM LIST.
         AGO   .PP
.#013    AIF   ('&W' NE 'DSQUID').#014
         LA    0,=X'0C000204'      SPECIFY QUERY UNIQUE DEVICE ID.
         ST    0,4(,1)             SAVE ITS POINTER IN PARM LIST.
         AGO   .PP
.#014    AIF   ('&W' NE 'DSQUSE').#015
         LA    0,=X'0C000205'      SPECIFY QUERY USAGE.
         ST    0,4(,1)             SAVE ITS POINTER IN PARM LIST.
         AGO   .PP
.#015    AIF   ('&W' NE 'DSQDEV').#016
         LA    0,=X'0C000206'      SPECIFY QUERY DEVICE CHRISTCS.
         ST    0,4(,1)             SAVE ITS POINTER IN PARM LIST.
         AGO   .PP
.#016    AIF   ('&W' NE 'DSRNIT').#017
         LA    0,=X'0C000207'      SPECIFY RE-INIT DEVICE.
         ST    0,4(,1)             SAVE ITS POINTER IN PARM LIST.
         AGO   .PP
.#017    AIF   ('&W' NE 'FSPCRT').#018
         LA    0,=X'0C040000'      SPECIFY PAGE CREATION.
         ST    0,4(,1)             SAVE ITS POINTER IN PARM LIST.
         AGO   .PP
.#018    AIF   ('&W' NE 'FSPSEL').#019
         LA    0,=X'0C040001'      SPECIFY PAGE SELECTION.
         ST    0,4(,1)             SAVE ITS POINTER IN PARM LIST.
         AGO   .PP
.#019    AIF   ('&W' NE 'FSPDEL').#020
         LA    0,=X'0C040002'      SPECIFY PAGE DELETION.
         ST    0,4(,1)             SAVE ITS POINTER IN PARM LIST.
         AGO   .PP
.#020    AIF   ('&W' NE 'FSPCLR').#021
         LA    0,=X'0C040003'      SPECIFY PAGE CLEAR.
         ST    0,4(,1)             SAVE ITS POINTER IN PARM LIST.
         AGO   .PP
.#021    AIF   ('&W' NE 'FSPQRY').#022
         LA    0,=X'0C040004'      SPECIFY QUERY PAGE.
         ST    0,4(,1)             SAVE ITS POINTER IN PARM LIST.
         AGO   .PP
.#022    AIF   ('&W' NE 'FSQCPG').#023
         LA    0,=X'0C040005'      SPECIFY QUERY CURRENT PAGE.
         ST    0,4(,1)             SAVE ITS POINTER IN PARM LIST.
         AGO   .PP
.#023    AIF   ('&W' NE 'SSQF').#024
         LA    0,=X'0C040100'      SPECIFY QUERY S SETS ON FILE.
         ST    0,4(,1)             SAVE ITS POINTER IN PARM LIST.
         AGO   .PP
.#024    AIF   ('&W' NE 'PSQSS').#025
         LA    0,=X'0C040101'      SPECIFY QUERY LOADED PS SETS.
         ST    0,4(,1)             SAVE ITS POINTER IN PARM LIST.
         AGO   .PP
.#025    AIF   ('&W' NE 'GSQNSS').#026
         LA    0,=X'0C040102'      SPECIFY QUERY NO LOADED GRA SS.
         ST    0,4(,1)             SAVE ITS POINTER IN PARM LIST.
         AGO   .PP
.#026    AIF   ('&W' NE 'GSQSS').#027
         LA    0,=X'0C040103'      SPECIFY QUERY LOADED GRPHCS SS.
         ST    0,4(,1)             SAVE ITS POINTER IN PARM LIST.
         AGO   .PP
.#027    AIF   ('&W' NE 'PSLSS').#028
         LA    0,=X'0C040200'      SPECIFY LOAD PROG SYMBOL SET.
         ST    0,4(,1)             SAVE ITS POINTER IN PARM LIST.
         AGO   .PP
.#028    AIF   ('&W' NE 'PSLSSC').#029
         LA    0,=X'0C040201'      SPECIFY COND LOAD PROG SYM SET.
         ST    0,4(,1)             SAVE ITS POINTER IN PARM LIST.
         AGO   .PP
.#029    AIF   ('&W' NE 'PSDSS').#030
         LA    0,=X'0C040202'      SPECIFY DEFINE PROG SYMBOL SET.
         ST    0,4(,1)             SAVE ITS POINTER IN PARM LIST.
         AGO   .PP
.#030    AIF   ('&W' NE 'PSRSV').#031
         LA    0,=X'0C040203'      SPECIFY RESERVE PROG SYM SET.
         ST    0,4(,1)             SAVE ITS POINTER IN PARM LIST.
         AGO   .PP
.#031    AIF   ('&W' NE 'GSLSS').#032
         LA    0,=X'0C040300'      SPECIFY LOAD GRPH SYMBOL SET.
         ST    0,4(,1)             SAVE ITS POINTER IN PARM LIST.
         AGO   .PP
.#032    AIF   ('&W' NE 'GSDSS').#033
         LA    0,=X'0C040301'      SPECIFY DEFINE GRPH SYMBOL SET.
         ST    0,4(,1)             SAVE ITS POINTER IN PARM LIST.
         AGO   .PP
.#033    AIF   ('&W' NE 'PSRSS').#034
         LA    0,=X'0C040400'      SPECIFY RELEASE PROG SYM SET.
         ST    0,4(,1)             SAVE ITS POINTER IN PARM LIST.
         AGO   .PP
.#034    AIF   ('&W' NE 'GSRSS').#035
         LA    0,=X'0C040401'      SPECIFY RELEASE GRPH SYM SET.
         ST    0,4(,1)             SAVE ITS POINTER IN PARM LIST.
         AGO   .PP
.#035    AIF   ('&W' NE 'FSQDEV').#036
         LA    0,=X'0C040500'      SPECIFY QUERY DEVICE.
         ST    0,4(,1)             SAVE ITS POINTER IN PARM LIST.
         AGO   .PP
.#036    AIF   ('&W' NE 'FSQUPG').#037
         LA    0,=X'0C040900'      SPECIFY QUERY UNIQUE PAGE ID.
         ST    0,4(,1)             SAVE ITS POINTER IN PARM LIST.
         AGO   .PP
.#037    AIF   ('&W' NE 'SSREAD').#038
         LA    0,=X'0C040B00'      SPECIFY READ SYMBOL SET.
         ST    0,4(,1)             SAVE ITS POINTER IN PARM LIST.
         AGO   .PP
.#038    AIF   ('&W' NE 'SSWRT').#039
         LA    0,=X'0C040B01'      SPECIFY WRITE SYMBOL SET.
         ST    0,4(,1)             SAVE ITS POINTER IN PARM LIST.
         AGO   .PP
.#039    AIF   ('&W' NE 'FSALRM').#040
         LA    0,=X'0C080000'      SPECIFY SOUND ALARM.
         ST    0,4(,1)             SAVE ITS POINTER IN PARM LIST.
         AGO   .PP
.#040    AIF   ('&W' NE 'ASFCUR').#041
         LA    0,=X'0C080100'      SPECIFY MOVE CURSOR.
         ST    0,4(,1)             SAVE ITS POINTER IN PARM LIST.
         AGO   .PP
.#041    AIF   ('&W' NE 'ASDFLT').#042
         LA    0,=X'0C080200'      SPECIFY SET DEFAULT FLD ATTRS.
         ST    0,4(,1)             SAVE ITS POINTER IN PARM LIST.
         AGO   .PP
.#042    AIF   ('&W' NE 'ASDTRN').#043
         LA    0,=X'0C080300'      SPECIFY DEFINE XLATE TABLE.
         ST    0,4(,1)             SAVE ITS POINTER IN PARM LIST.
         AGO   .PP
.#043    AIF   ('&W' NE 'ASFCLR').#044
         LA    0,=X'0C080400'      SPECIFY CLEAR ALPHA FIELDS.
         ST    0,4(,1)             SAVE ITS POINTER IN PARM LIST.
         AGO   .PP
.#044    AIF   ('&W' NE 'ASFTYP').#045
         LA    0,=X'0C080500'      SPECIFY SET FIELD TYPE.
         ST    0,4(,1)             SAVE ITS POINTER IN PARM LIST.
         AGO   .PP
.#045    AIF   ('&W' NE 'ASFINT').#046
         LA    0,=X'0C080501'      SPECIFY SET FIELD INTENSITY.
         ST    0,4(,1)             SAVE ITS POINTER IN PARM LIST.
         AGO   .PP
.#046    AIF   ('&W' NE 'ASFCOL').#047
         LA    0,=X'0C080502'      SPECIFY SET FIELD COLOR.
         ST    0,4(,1)             SAVE ITS POINTER IN PARM LIST.
         AGO   .PP
.#047    AIF   ('&W' NE 'ASFPSS').#048
         LA    0,=X'0C080503'      SPECIFY SET FIELD PRIMARY SS.
         ST    0,4(,1)             SAVE ITS POINTER IN PARM LIST.
         AGO   .PP
.#048    AIF   ('&W' NE 'ASFHLT').#049
         LA    0,=X'0C080504'      SPECIFY SET FIELD HILITE.
         ST    0,4(,1)             SAVE ITS POINTER IN PARM LIST.
         AGO   .PP
.#049    AIF   ('&W' NE 'ASFEND').#050
         LA    0,=X'0C080505'      SPECIFY SET END FLD ATTRIBUTE.
         ST    0,4(,1)             SAVE ITS POINTER IN PARM LIST.
         AGO   .PP
.#050    AIF   ('&W' NE 'ASFOUT').#051
         LA    0,=X'0C080506'      SPECIFY SET FIELD O/P NULLS.
         ST    0,4(,1)             SAVE ITS POINTER IN PARM LIST.
         AGO   .PP
.#051    AIF   ('&W' NE 'ASFIN').#052
         LA    0,=X'0C080507'      SPECIFY SET FIELD I/P BLANKS.
         ST    0,4(,1)             SAVE ITS POINTER IN PARM LIST.
         AGO   .PP
.#052    AIF   ('&W' NE 'ASFTRN').#053
         LA    0,=X'0C080508'      SPECIFY SET FLD XLATE TABLE.
         ST    0,4(,1)             SAVE ITS POINTER IN PARM LIST.
         AGO   .PP
.#053    AIF   ('&W' NE 'ASCHLT').#054
         LA    0,=X'0C080600'      SPECIFY SET CHARACTER HILITES.
         ST    0,4(,1)             SAVE ITS POINTER IN PARM LIST.
         AGO   .PP
.#054    AIF   ('&W' NE 'ASCCOL').#055
         LA    0,=X'0C080601'      SPECIFY SET CHARACTER COLORS.
         ST    0,4(,1)             SAVE ITS POINTER IN PARM LIST.
         AGO   .PP
.#055    AIF   ('&W' NE 'ASCSS').#056
         LA    0,=X'0C080602'      SPECIFY SET CHAR SYMBOL SETS.
         ST    0,4(,1)             SAVE ITS POINTER IN PARM LIST.
         AGO   .PP
.#056    AIF   ('&W' NE 'ASCPUT').#057
         LA    0,=X'0C080603'      SPECIFY SET CHARACTER CODES.
         ST    0,4(,1)             SAVE ITS POINTER IN PARM LIST.
         AGO   .PP
.#057    AIF   ('&W' NE 'ASDFLD').#058
         LA    0,=X'0C080700'      SPECIFY DEFINE ALPHA FIELD.
         ST    0,4(,1)             SAVE ITS POINTER IN PARM LIST.
         AGO   .PP
.#058    AIF   ('&W' NE 'ASRFMT').#059
         LA    0,=X'0C080800'      SPECIFY REDEFINE ALPHA FIELDS.
         ST    0,4(,1)             SAVE ITS POINTER IN PARM LIST.
         AGO   .PP
.#059    AIF   ('&W' NE 'ASDFMT').#060
         LA    0,=X'0C080801'      SPECIFY DEFINE ALPHA FIELDS.
         ST    0,4(,1)             SAVE ITS POINTER IN PARM LIST.
         AGO   .PP
.#060    AIF   ('&W' NE 'ASRATT').#061
         LA    0,=X'0C080802'      SPECIFY REDEFINE FIELD ATTR.S.
         ST    0,4(,1)             SAVE ITS POINTER IN PARM LIST.
         AGO   .PP
.#061    AIF   ('&W' NE 'ASQHLT').#062
         LA    0,=X'0C080900'      SPECIFY QUERY CHAR HILITES.
         ST    0,4(,1)             SAVE ITS POINTER IN PARM LIST.
         AGO   .PP
.#062    AIF   ('&W' NE 'ASQCOL').#063
         LA    0,=X'0C080901'      SPECIFY QUERY CHARACTER COLORS.
         ST    0,4(,1)             SAVE ITS POINTER IN PARM LIST.
         AGO   .PP
.#063    AIF   ('&W' NE 'ASQSS').#064
         LA    0,=X'0C080902'      SPECIFY QUERY CHAR SYMBOL SETS.
         ST    0,4(,1)             SAVE ITS POINTER IN PARM LIST.
         AGO   .PP
.#064    AIF   ('&W' NE 'ASCGET').#065
         LA    0,=X'0C080903'      SPECIFY QUERY CHARACTER CODES.
         ST    0,4(,1)             SAVE ITS POINTER IN PARM LIST.
         AGO   .PP
.#065    AIF   ('&W' NE 'ASQFLD').#066
         LA    0,=X'0C080A00'      SPECIFY QUERY FLD ATTRIBUTES.
         ST    0,4(,1)             SAVE ITS POINTER IN PARM LIST.
         AGO   .PP
.#066    AIF   ('&W' NE 'ASQMOD').#067
         LA    0,=X'0C080B00'      SPECIFY QUERY MODIFIED FIELDS.
         ST    0,4(,1)             SAVE ITS POINTER IN PARM LIST.
         AGO   .PP
.#067    AIF   ('&W' NE 'FSREST').#068
         LA    0,=X'0C080C00'      SPECIFY RESTORE SCREEN.
         ST    0,4(,1)             SAVE ITS POINTER IN PARM LIST.
         AGO   .PP
.#068    AIF   ('&W' NE 'ASMODE').#069
         LA    0,=X'0C080D00'      SPECIFY SET REPLY MODE.
         ST    0,4(,1)             SAVE ITS POINTER IN PARM LIST.
         AGO   .PP
.#069    AIF   ('&W' NE 'ASQMAX').#070
         LA    0,=X'0C080E00'      SPECIFY QUERY NO. OF FIELDS.
         ST    0,4(,1)             SAVE ITS POINTER IN PARM LIST.
         AGO   .PP
.#070    AIF   ('&W' NE 'ASQCUR').#071
         LA    0,=X'0C080F00'      SPECIFY QUERY CURSOR.
         ST    0,4(,1)             SAVE ITS POINTER IN PARM LIST.
         AGO   .PP
.#071    AIF   ('&W' NE 'ASFMOD').#072
         LA    0,=X'0C081100'      SPECIFY MODIFY FIELD.
         ST    0,4(,1)             SAVE ITS POINTER IN PARM LIST.
         AGO   .PP
.#072    AIF   ('&W' NE 'ASTYPE').#073
         LA    0,=X'0C081300'      SPECIFY SET TERMINAL TYPE.
         ST    0,4(,1)             SAVE ITS POINTER IN PARM LIST.
         AGO   .PP
.#073    AIF   ('&W' NE 'ASGPUT').#074
         LA    0,=X'0C081503'      SPECIFY SET DUAL-CHARACTERS.
         ST    0,4(,1)             SAVE ITS POINTER IN PARM LIST.
         AGO   .PP
.#074    AIF   ('&W' NE 'ASGGET').#075
         LA    0,=X'0C081603'      SPECIFY QUERY DUAL-CHARACTERS.
         ST    0,4(,1)             SAVE ITS POINTER IN PARM LIST.
         AGO   .PP
.#075    AIF   ('&W' NE 'GSFLD').#076
         LA    0,=X'0C0C0000'      SPECIFY GRAPHICS FIELD.
         ST    0,4(,1)             SAVE ITS POINTER IN PARM LIST.
         AGO   .PP
.#076    AIF   ('&W' NE 'GSPS').#077
         LA    0,=X'0C0C0001'      SPECIFY PICTURE SPACE.
         ST    0,4(,1)             SAVE ITS POINTER IN PARM LIST.
         AGO   .PP
.#077    AIF   ('&W' NE 'GSWIN').#078
         LA    0,=X'0C0C0002'      SPECIFY  SPECIFY WINDOW.
         ST    0,4(,1)             SAVE ITS POINTER IN PARM LIST.
         AGO   .PP
.#078    AIF   ('&W' NE 'GSVIEW').#079
         LA    0,=X'0C0C0003'      SPECIFY  SPECIFY VIEWPORT.
         ST    0,4(,1)             SAVE ITS POINTER IN PARM LIST.
         AGO   .PP
.#079    AIF   ('&W' NE 'GSQPS').#080
         LA    0,=X'0C0C0004'      SPECIFY QUERY PICTURE SPACE.
         ST    0,4(,1)             SAVE ITS POINTER IN PARM LIST.
         AGO   .PP
.#080    AIF   ('&W' NE 'GSQVIE').#081
         LA    0,=X'0C0C0005'      SPECIFY QUERY VIEWPORT.
         ST    0,4(,1)             SAVE ITS POINTER IN PARM LIST.
         AGO   .PP
.#081    AIF   ('&W' NE 'GSQWIN').#082
         LA    0,=X'0C0C0006'      SPECIFY QUERY WINDOW.
         ST    0,4(,1)             SAVE ITS POINTER IN PARM LIST.
         AGO   .PP
.#082    AIF   ('&W' NE 'GSQMAX').#083
         LA    0,=X'0C0C0100'      SPECIFY QUERY SEGMENT RANGE.
         ST    0,4(,1)             SAVE ITS POINTER IN PARM LIST.
         AGO   .PP
.#083    AIF   ('&W' NE 'GSQCUR').#084
         LA    0,=X'0C0C0101'      SPECIFY QUERY CURSOR.
         ST    0,4(,1)             SAVE ITS POINTER IN PARM LIST.
         AGO   .PP
.#084    AIF   ('&W' NE 'GSQCEL').#085
         LA    0,=X'0C0C0202'      SPECIFY QUERY CELL SIZE.
         ST    0,4(,1)             SAVE ITS POINTER IN PARM LIST.
         AGO   .PP
.#085    AIF   ('&W' NE 'GSCLP').#086
         LA    0,=X'0C0C0203'      SPECIFY  SPECIFY CLIPPING.
         ST    0,4(,1)             SAVE ITS POINTER IN PARM LIST.
         AGO   .PP
.#086    AIF   ('&W' NE 'GSQCLP').#087
         LA    0,=X'0C0C0204'      SPECIFY QUERY CLIPPING.
         ST    0,4(,1)             SAVE ITS POINTER IN PARM LIST.
         AGO   .PP
.#087    AIF   ('&W' NE 'GSSEG').#088
         LA    0,=X'0C0C0300'      SPECIFY CREATE SEGMENT.
         ST    0,4(,1)             SAVE ITS POINTER IN PARM LIST.
         AGO   .PP
.#088    AIF   ('&W' NE 'GSSCLS').#089
         LA    0,=X'0C0C0301'      SPECIFY CLOSE SEGMENT.
         ST    0,4(,1)             SAVE ITS POINTER IN PARM LIST.
         AGO   .PP
.#089    AIF   ('&W' NE 'GSSDEL').#090
         LA    0,=X'0C0C0302'      SPECIFY DELETE SEGMENT.
         ST    0,4(,1)             SAVE ITS POINTER IN PARM LIST.
         AGO   .PP
.#090    AIF   ('&W' NE 'GSCLR').#091
         LA    0,=X'0C0C0303'      SPECIFY CLEAR GRAPHICS FIELD.
         ST    0,4(,1)             SAVE ITS POINTER IN PARM LIST.
         AGO   .PP
.#091    AIF   ('&W' NE 'GSMOVE').#092
         LA    0,=X'0C0C0400'      SPECIFY MOVE TO.
         ST    0,4(,1)             SAVE ITS POINTER IN PARM LIST.
         AGO   .PP
.#092    AIF   ('&W' NE 'GSLINE').#093
         LA    0,=X'0C0C0401'      SPECIFY LINE TO.
         ST    0,4(,1)             SAVE ITS POINTER IN PARM LIST.
         AGO   .PP
.#093    AIF   ('&W' NE 'GSPLNE').#094
         LA    0,=X'0C0C0402'      SPECIFY POLYLINE TO.
         ST    0,4(,1)             SAVE ITS POINTER IN PARM LIST.
         AGO   .PP
.#094    AIF   ('&W' NE 'GSMARK').#095
         LA    0,=X'0C0C0406'      SPECIFY MARKER AT.
         ST    0,4(,1)             SAVE ITS POINTER IN PARM LIST.
         AGO   .PP
.#095    AIF   ('&W' NE 'GSMRKS').#096
         LA    0,=X'0C0C0407'      SPECIFY POLY MARKER AT.
         ST    0,4(,1)             SAVE ITS POINTER IN PARM LIST.
         AGO   .PP
.#096    AIF   ('&W' NE 'GSAREA').#097
         LA    0,=X'0C0C0408'      SPECIFY BEGIN AREA.
         ST    0,4(,1)             SAVE ITS POINTER IN PARM LIST.
         AGO   .PP
.#097    AIF   ('&W' NE 'GSENDA').#098
         LA    0,=X'0C0C0409'      SPECIFY END AREA.
         ST    0,4(,1)             SAVE ITS POINTER IN PARM LIST.
         AGO   .PP
.#098    AIF   ('&W' NE 'GSVECM').#099
         LA    0,=X'0C0C040A'      SPECIFY VECTOR.
         ST    0,4(,1)             SAVE ITS POINTER IN PARM LIST.
         AGO   .PP
.#099    AIF   ('&W' NE 'GSCHAR').#100
         LA    0,=X'0C0C0500'      SPECIFY CHARACTER STRING AT.
         ST    0,4(,1)             SAVE ITS POINTER IN PARM LIST.
         AGO   .PP
.#100    AIF   ('&W' NE 'GSCHAP').#101
         LA    0,=X'0C0C0501'      SPECIFY CHARACTER STRING.
         ST    0,4(,1)             SAVE ITS POINTER IN PARM LIST.
         AGO   .PP
.#101    AIF   ('&W' NE 'GSARC').#102
         LA    0,=X'0C0C0600'      SPECIFY ARC.
         ST    0,4(,1)             SAVE ITS POINTER IN PARM LIST.
         AGO   .PP
.#102    AIF   ('&W' NE 'GSELPS').#103
         LA    0,=X'0C0C0601'      SPECIFY ELLIPSE.
         ST    0,4(,1)             SAVE ITS POINTER IN PARM LIST.
         AGO   .PP
.#103    AIF   ('&W' NE 'GSPFLT').#104
         LA    0,=X'0C0C0602'      SPECIFY FILLET.
         ST    0,4(,1)             SAVE ITS POINTER IN PARM LIST.
         AGO   .PP
.#104    AIF   ('&W' NE 'GSQCP').#105
         LA    0,=X'0C0C0700'      SPECIFY QUERY CURRENT POSN.
         ST    0,4(,1)             SAVE ITS POINTER IN PARM LIST.
         AGO   .PP
.#105    AIF   ('&W' NE 'GSCOL').#106
         LA    0,=X'0C0C0701'      SPECIFY SET COLOR.
         ST    0,4(,1)             SAVE ITS POINTER IN PARM LIST.
         AGO   .PP
.#106    AIF   ('&W' NE 'GSMIX').#107
         LA    0,=X'0C0C0702'      SPECIFY SET MIX MODE.
         ST    0,4(,1)             SAVE ITS POINTER IN PARM LIST.
         AGO   .PP
.#107    AIF   ('&W' NE 'GSLT').#108
         LA    0,=X'0C0C0703'      SPECIFY SET LINE TYPE.
         ST    0,4(,1)             SAVE ITS POINTER IN PARM LIST.
         AGO   .PP
.#108    AIF   ('&W' NE 'GSLW').#109
         LA    0,=X'0C0C0704'      SPECIFY SET LINE WIDTH.
         ST    0,4(,1)             SAVE ITS POINTER IN PARM LIST.
         AGO   .PP
.#109    AIF   ('&W' NE 'GSCM').#110
         LA    0,=X'0C0C0705'      SPECIFY SET CHARACTER MODE.
         ST    0,4(,1)             SAVE ITS POINTER IN PARM LIST.
         AGO   .PP
.#110    AIF   ('&W' NE 'GSCS').#111
         LA    0,=X'0C0C0706'      SPECIFY SET CHARACTER SET.
         ST    0,4(,1)             SAVE ITS POINTER IN PARM LIST.
         AGO   .PP
.#111    AIF   ('&W' NE 'GSCB').#112
         LA    0,=X'0C0C0707'      SPECIFY SET CHARACTER BOX.
         ST    0,4(,1)             SAVE ITS POINTER IN PARM LIST.
         AGO   .PP
.#112    AIF   ('&W' NE 'GSCA').#113
         LA    0,=X'0C0C0708'      SPECIFY SET CHARACTER ANGLE.
         ST    0,4(,1)             SAVE ITS POINTER IN PARM LIST.
         AGO   .PP
.#113    AIF   ('&W' NE 'GSCD').#114
         LA    0,=X'0C0C0709'      SPECIFY SET CHARACTER DIRCTN.
         ST    0,4(,1)             SAVE ITS POINTER IN PARM LIST.
         AGO   .PP
.#114    AIF   ('&W' NE 'GSPAT').#115
         LA    0,=X'0C0C070A'      SPECIFY SET PATTERN.
         ST    0,4(,1)             SAVE ITS POINTER IN PARM LIST.
         AGO   .PP
.#115    AIF   ('&W' NE 'GSMS').#116
         LA    0,=X'0C0C070B'      SPECIFY SET MARKER SYMBOL.
         ST    0,4(,1)             SAVE ITS POINTER IN PARM LIST.
         AGO   .PP
.#116    AIF   ('&W' NE 'GSCH').#117
         LA    0,=X'0C0C070C'      SPECIFY SET CHARACTER SHEAR.
         ST    0,4(,1)             SAVE ITS POINTER IN PARM LIST.
         AGO   .PP
.#117    AIF   ('&W' NE 'GSQCOL').#118
         LA    0,=X'0C0C0711'      SPECIFY QUERY COLOR.
         ST    0,4(,1)             SAVE ITS POINTER IN PARM LIST.
         AGO   .PP
.#118    AIF   ('&W' NE 'GSQMIX').#119
         LA    0,=X'0C0C0712'      SPECIFY QUERY MIX MODE.
         ST    0,4(,1)             SAVE ITS POINTER IN PARM LIST.
         AGO   .PP
.#119    AIF   ('&W' NE 'GSQLT').#120
         LA    0,=X'0C0C0713'      SPECIFY QUERY LINE TYPE.
         ST    0,4(,1)             SAVE ITS POINTER IN PARM LIST.
         AGO   .PP
.#120    AIF   ('&W' NE 'GSQLW').#121
         LA    0,=X'0C0C0714'      SPECIFY QUERY LINE WIDTH.
         ST    0,4(,1)             SAVE ITS POINTER IN PARM LIST.
         AGO   .PP
.#121    AIF   ('&W' NE 'GSQCM').#122
         LA    0,=X'0C0C0715'      SPECIFY QUERY CHARACTER MODE.
         ST    0,4(,1)             SAVE ITS POINTER IN PARM LIST.
         AGO   .PP
.#122    AIF   ('&W' NE 'GSQCS').#123
         LA    0,=X'0C0C0716'      SPECIFY QUERY CHARACTER SET.
         ST    0,4(,1)             SAVE ITS POINTER IN PARM LIST.
         AGO   .PP
.#123    AIF   ('&W' NE 'GSQCB').#124
         LA    0,=X'0C0C0717'      SPECIFY QUERY CHARACTER BOX.
         ST    0,4(,1)             SAVE ITS POINTER IN PARM LIST.
         AGO   .PP
.#124    AIF   ('&W' NE 'GSQCA').#125
         LA    0,=X'0C0C0718'      SPECIFY QUERY CHARACTER ANG.
         ST    0,4(,1)             SAVE ITS POINTER IN PARM LIST.
         AGO   .PP
.#125    AIF   ('&W' NE 'GSQCD').#126
         LA    0,=X'0C0C0719'      SPECIFY QUERY CHARACTER DIRN.
         ST    0,4(,1)             SAVE ITS POINTER IN PARM LIST.
         AGO   .PP
.#126    AIF   ('&W' NE 'GSQPAT').#127
         LA    0,=X'0C0C071A'      SPECIFY QUERY PATTERN.
         ST    0,4(,1)             SAVE ITS POINTER IN PARM LIST.
         AGO   .PP
.#127    AIF   ('&W' NE 'GSQMS').#128
         LA    0,=X'0C0C071B'      SPECIFY QUERY MARKER SYMBOL.
         ST    0,4(,1)             SAVE ITS POINTER IN PARM LIST.
         AGO   .PP
.#128    AIF   ('&W' NE 'GSQCH').#129
         LA    0,=X'0C0C071C'      SPECIFY QUERY CHARACTER SHEAR.
         ST    0,4(,1)             SAVE ITS POINTER IN PARM LIST.
         AGO   .PP
.#129    AIF   ('&W' NE 'GSPUT').#130
         LA    0,=X'0C0C0900'      SPECIFY INCLUDE GDF.
         ST    0,4(,1)             SAVE ITS POINTER IN PARM LIST.
         AGO   .PP
.#130    AIF   ('&W' NE 'GSIMG').#131
         LA    0,=X'0C0C0A00'      SPECIFY LIMITED IMAGE.
         ST    0,4(,1)             SAVE ITS POINTER IN PARM LIST.
         AGO   .PP
.#131    AIF   ('&W' NE 'GSGETS').#132
         LA    0,=X'0C0C0B00'      SPECIFY RETRIEVE GDF.
         ST    0,4(,1)             SAVE ITS POINTER IN PARM LIST.
         AGO   .PP
.#132    AIF   ('&W' NE 'GSGETE').#133
         LA    0,=X'0C0C0B01'      SPECIFY END GDF RETRIEVAL.
         ST    0,4(,1)             SAVE ITS POINTER IN PARM LIST.
         AGO   .PP
.#133    AIF   ('&W' NE 'GSGET').#134
         LA    0,=X'0C0C0B02'      SPECIFY GET GDF BUFFER.
         ST    0,4(,1)             SAVE ITS POINTER IN PARM LIST.
         AGO   .PP
.#134    AIF   ('&W' NE 'ASREAD').#135
         LA    0,=X'0C100000'      SPECIFY READ.
         ST    0,4(,1)             SAVE ITS POINTER IN PARM LIST.
         AGO   .PP
.#135    AIF   ('&W' NE 'FSFRCE').#136
         LA    0,=X'0C100001'      SPECIFY FORCE OUTPUT.
         ST    0,4(,1)             SAVE ITS POINTER IN PARM LIST.
         AGO   .PP
.#136    AIF   ('&W' NE 'FSCHEK').#137
         LA    0,=X'0C100002'      SPECIFY PREPARE PS FOR OUTPUT.
         ST    0,4(,1)             SAVE ITS POINTER IN PARM LIST.
         AGO   .PP
.#137    AIF   ('&W' NE 'FSSAVE').#138
         LA    0,=X'0C100004'      SPECIFY SAVE SCREEN.
         ST    0,4(,1)             SAVE ITS POINTER IN PARM LIST.
         AGO   .PP
.#138    AIF   ('&W' NE 'FSSHOW').#139
         LA    0,=X'0C100005'      SPECIFY SHOW SCREEN.
         ST    0,4(,1)             SAVE ITS POINTER IN PARM LIST.