         MACRO
&NAME    OFF   &FLAG
.*
.**********************************************************************
.*                                                                    *
.*  COPYRIGHT (C) 1981 BY BROIDO COMPUTER CONSULTING.  ALL RIGHTS     *
.*  RESERVED EXCEPT:                                                  *
.*                                                                    *
.*  PARTICULAR LICENSE IS GRANTED TO DISTRIBUTE THIS MACRO FREE       *
.*  OF CHARGE, BUT IT MUST NOT BE SOLD.  A SERVICE CHARGE FOR         *
.*  HANDLING A COLLECTION OF SOFTWARE OF WHICH THIS IS A PART,        *
.*  ON THE OTHER HAND, IS APPROPRIATE.                                *
.*                                                                    *
.*                                  BROIDO COMPUTER CONSULTING        *
.*                                  BROIDOJ@GMAIL.COM                 *
.*                                                                    *
.**********************************************************************
.*
         LCLC  &L
&L       SETC  'L'''
&NAME    NI    &FLAG,255-&L.&FLAG          (TURN OFF BIT FLAG)
         MEND
