         MACRO
&NAME    REGS
.*
.**********************************************************************
.*                                                                    *
.*  COPYRIGHT (C) 1979 BY BROIDO COMPUTER CONSULTING.  ALL RIGHTS     *
.*  RESERVED EXCEPT:                                                  *
.*                                                                    *
.*  PARTICULAR LICENSE IS GRANTED TO DISTRIBUTE THIS MACRO FREE       *
.*  OF CHARGE, BUT IT MUST NOT BE SOLD.  A SERVICE CHARGE FOR         *
.*  HANDLING A COLLECTION OF SOFTWARE OF WHICH THIS IS A PART,        *
.*  ON THE OTHER HAND, IS APPROPRIATE.                                *
.*                                                                    *
.*                                  BROIDO COMPUTER CONSULTING        *
.*                                  BROIDOJ@GMAIL.COM                 *
.*                                                                    *
.**********************************************************************
.*
.*       I KNOW, ARNOLD...  EVERYONE'S GOT A REGS MACRO!
.*
         LCLA  &I
&I       SETA  0
.LUP     ANOP
R&I      EQU   &I
&I       SETA  &I+1
         AIF   (&I LE 15).LUP
         MEND
