         MACRO                                                          001
&NAME    ANUM                                                           002
         B     F&SYSNDX+6                                               003
A&SYSNDX DC    X'FF00FFFFFFFFFF00FFFFFFFFFF00'                          004
B&SYSNDX DC    X'C0C0C0C0C0C0C0C0C0C0C0C0C0C0C0C0C0C0C0C0'              005
C&SYSNDX DC    X'C0'                                                    006
         DC    XL9'00'                                                  007
         DC    X'CACBCCCDCECFD0'                                        008
         DC    XL9'00'                                                  009
         DC    X'DADBDCDDDEDFE0E1'                                      010
         DC    XL8'00'                                                  011
         DC    X'EAEBECEDEEEF'                                          012
         DC    XL10'00'                                                 013
         DC    X'FAFBFCFDFEFF'                                          014
X&SYSNDX DC    F'0'                SAVE AREA REGISTER 2                 0141
D&SYSNDX NC    B&SYSNDX,0(14)                                           015
E&SYSNDX XC    B&SYSNDX,=20X'C0'                                        016
F&SYSNDX TRT   0(0,14),C&SYSNDX-192                                     017
&NAME    MVI   D&SYSNDX+1,X'00'    SET INSTR. LENGTHS TO ZERO           018
         MVI   E&SYSNDX+1,X'00'                                         0181
         MVI   F&SYSNDX+1,X'00'                                         0182
         BCTR  15,0                                                     0183
         ST    2,X&SYSNDX          SAVE REGISTER 2                      0184
         MVC   B&SYSNDX,=20X'C0'   SET MASK TO LOWEST VALID CHAR.LESS 1 019
         EX    15,D&SYSNDX         EXECUTE AND WITH DATA LENGTH IN R15  020
         EX    15,E&SYSNDX         EYECUTE EXCL.OR- DATA LENGTH IN R15  021
         BM    G&SYSNDX            ERROR IF ANY BITS LEFT ON            022
         EX    15,F&SYSNDX         EXECUTE TRANSLATE AND TEST           023
         BC    8,H&SYSNDX          IF  OK  BYPASS ERROR ROUTINE         024
G&SYSNDX LR    14,15               ERROR RTN.SETS R14 AND R15 EQUAL     025
H&SYSNDX L     2,X&SYSNDX          RESTORE REGISTER 2                   0251
         MEND                                                           026
