         MACRO                                                          EXMN0044
&NAME    BER   &R                                                       EXMN0045
&NAME    BCR   8,&R                BR ON EQUAL                          EXMN0046
         MEND                                                           EXMN0047
