         MACRO                                                          EXMN0054
&NAME    BHR   &R                                                       EXMN0055
&NAME    BCR   2,&R                BR ON HIGH                           EXMN0056
         MEND                                                           EXMN0057
