         MACRO                                                          EXMN0049
&NAME    BLR   &R                                                       EXMN0050
&NAME    BCR   4,&R                BR ON LOW                            EXMN0051
         MEND                                                           EXMN0052
