         MACRO                                                          EXMN0014
&NAME    BMR   &R                                                       EXMN0015
&NAME    BCR   4,&R                BR ON MINUS OR MIXED                 EXMN0016
         MEND                                                           EXMN0017
