         MACRO                                                          EXMN0029
&NAME    BNER  &R                                                       EXMN0030
&NAME    BCR   7,&R                BR ON NOT EQUAL                      EXMN0031
         MEND                                                           EXMN0032
