         MACRO                                                          EXMN0039
&NAME    BNHR  &R                                                       EXMN0040
&NAME    BCR   13,&R               BR ON NOT HIGH                       EXMN0041
         MEND                                                           EXMN0042
