         MACRO                                                          EXMN0034
&NAME    BNLR  &R                                                       EXMN0035
&NAME    BCR   11,&R               BR ON NOT LOW                        EXMN0036
         MEND                                                           EXMN0037
