         MACRO                                                          EXMN0064
&NAME    BNMR  &R                                                       EXMN0065
&NAME    BCR   11,&R               BR ON NOT MINUS                      EXMN0066
         MEND                                                           EXMN0067
