         MACRO                                                          EXMN0069
&NAME    BNOR  &R                                                       EXMN0070
&NAME    BCR   14,&R               BR IF NOT ONES                       EXMN0071
         MEND                                                           EXMN0072
