         MACRO                                                          EXMN0059
&NAME    BNPR  &R                                                       EXMN0060
&NAME    BCR   13,&R               BR ON NOT PLUS                       EXMN0061
         MEND                                                           EXMN0062
