         MACRO                                                          EXMN0009
&NAME    BNZR  &R                                                       EXMN0010
&NAME    BCR   7,&R                BR ON NOT ZERO                       EXMN0011
         MEND                                                           EXMN0012
