         MACRO                                                          EXMN0019
&NAME    BOR   &R                                                       EXMN0020
&NAME    BCR   1,&R                BR ON OVERFLOW OR IF ONES            EXMN0021
         MEND                                                           EXMN0022
