         MACRO                                                          EXMN0024
&NAME    BPR   &R                                                       EXMN0025
&NAME    BCR   2,&R                BR ON PLUS                           EXMN0026
         MEND                                                           EXMN0027
