         MACRO                                                          EXMN0004
&NAME    BZR   &R                                                       EXMN0005
&NAME    BCR   8,&R                BR ON ZERO                           EXMN0006
         MEND                                                           EXMN0007
