         MACRO
&NAME    CANCEL
&NAME    DS    0H
         MNOTE 0,'CANCEL NOT SUPPORTED BY O.S.'
         SPACE 2
*        TO TERMINATE ABNORMALLY USE O.S. 'ABEND' MACRO.
         SPACE 2
         MEND
