         MACRO
&NAME    CCB
&NAME    DS    0H
         MNOTE 0,'CCB NOT SUPPORTED BY O.S.'
         PIOCS
         MEND
