         MACRO
&NAME    CLOSEF &DCB,&TYPE=,&LIST=NO
         LCLA  &N,&C
         PUSH  PRINT
         AIF   ('&LIST' EQ 'YES').X
         PRINT OFF
.X       ANOP
&N       SETA  N'&DCB
         AIF   (T'&DCB EQ 'O').ERR1
         AIF   (T'&TYPE EQ 'O').STD
&NAME    CLOSE &DCB,TYPE=&TYPE
         AGO   .FREE
.STD     ANOP
&NAME    CLOSE &DCB
.FREE    AIF   ('&DCB'(1,1) EQ '(').MULTI
         FREEPOOL &DCB
         POP   PRINT
         MEXIT
.MULTI   ANOP
&C       SETA  1
.LOOP    FREEPOOL &DCB(&C)
&C       SETA  &C+2
         AIF   (&C LE &N).LOOP
         POP   PRINT
         MEXIT
.ERR1    IHBERMAC 01
         MEND
