         MACRO
&NAME    CLOSE
&NAME    DS    0H
         SPACE
         MNOTE 0,'CLOSE MACRO FORMAT VARIES UNDER O.S.'
         SPACE
         MEND
