         MACRO
&NAME    CLOSER
&NAME    DS    0H
         SPACE
         MNOTE 0,'CLOSER MACRO NOT SUPPORTED BY O.S.'
         SPACE
         MEND
