         MACRO
&NAME    COMRG
&NAME    DS    0H
         MNOTE 0,'COMRG NOT SUPPORTED BY O.S.'
         SPACE 2
*        FOR UPSI BYTE USE PARM= IN EXEC STATEMENT,
*                       OR RETURN CODES (SEE RETURN MACRO).
*        FOR USER BYTES USE A COMMON DATA SET.
*                       OR COMMON AREA OF A ROOT MODULE,
*                       OR RETURN CODES.
*        FOR DATE USE O.S. MACRO 'TIME' OR,
*                       GENERAL PURPOSE MODULE GETDAT.
*        FOR JOB NAME USE PARM= IN THE EXEC STATEMENT OR
*                       GENERAL PURPOSE MODULE GETJOB.
*        FOR PROBLEM PROGRAM EXPANSION USE O.S. MACROS.
*                       'GETMAIN' AND 'FREEMAIN' AND,
*                       SEE ALSO SUPERVISOR AND DATA MANAGEMENT
*                       SERVICES MANUAL.
         SPACE 2
         MEND
