         MACRO
&NAME    DTFDA &BLKSIZE=,&DEVICE=,&ERRBYTE=,&IOAREA1=,&TYPEFLE=,       X
               &AFTER=,&CONTROL=,&DEVADDR=,&ERREXT=,&HOLD=,&DSKXTNT=,  X
               &IDLOC=,&KEYARG=,&KEYLEN=,&LABADDR=,&MODNAME=,&RDONLY=, X
               &READKEY=,&READID,=&WRITEID=,&WRITEKY=,&RECFORM=,       X
               &RECSIZE=,&RELTYPE=,&SEPASMB=,&SRCHM=,&TRLBL=,&VERIFY=, X
               &XTNTXIT=
         DTFALL
&NAME    DS    0H
         MNOTE 0,'DTFDA NOT SUPPORTED BY O.S.'
         SPACE 2
*        BASIC CODE NECESSARY IS
*        DCB   DSORG=DA,.....      FOLLOWED BY
         SPACE 1
         AIF   (T'&BLKSIZE EQ 'O').STEP1
*        BLKSIZE=   ...,BLKSIZE=NNN
.STEP1   AIF   (T'&DEVICE EQ 'O').STEP2
*        DEVICE=    ...,UNIT=      IN THE DD STATEMENT
.STEP2   AIF   (T'&ERRBYTE EQ 'O').STEP3
*        ERRBYTE=   THIS INFORMATION AVAILABLE IN SYNAD ROUTINE
.STEP3   AIF   (T'&IOAREA1 EQ 'O').STEP4
*        IOAREA1=   THIS ADDRESS IS SPECIFIED IN READ/WRITE MACROS
.STEP4   AIF   (T'&TYPEFLE EQ 'O').STEP5
*        TYPEFLE=   THIS IS AN OPTION OF THE OPEN MACRO UNDER O.S.
.STEP5   AIF   (T'&AFTER EQ 'O').STEP6
*        AFTER=     NO O.S. EQUIVALENT
*                   CODE DISP=NEW AND RUN PREFORMAT PROGRAM
.STEP6   AIF   (T'&CONTROL EQ 'O').STEP7
*        CONTROL=   NO O.S. EQUIVALENT
.STEP7   AIF   (T'&DEVADDR EQ 'O').STEP8
*        DEVADDR=   ...,VOLUME=    IN THE DD STATEMENT
.STEP8   AIF   (T'&ERREXT EQ 'O').STEP9
*        ERREXT=    ...,SYNAD=XXXXXXXX
.STEP9   AIF   (T'&HOLD EQ 'O').STEP10
*        HOLD=      USE O.S. ENQ/DEQ LOGIC FOR SPECIFIC RESOURCES
.STEP10  AIF   (T'&DSKXTNT EQ 'O').STEP11
*        DSKXTNT=   ...,OPTCD=(..R..)
.STEP11  AIF   (T'&IDLOC EQ 'O').STEP12
*        IDLOC=     USE TYPECODE AND BLOCK ADDRESS OPTIONS IN READ/
*                   WRITE MACROS.  FORMAT OF FEEDBACK DEPENDS ON
*                   OPTCD= IN DCB.
.STEP12  AIF   (T'&KEYARG EQ 'O').STEP13
*        KEYARG=    USE KEY ADDRESS IN READ/WRITE MACROS
.STEP13  AIF   (T'&KEYLEN EQ 'O').STEP14
*        KEYLEN=    ...,KEYLEN=NNN
.STEP14  AIF   (T'&LABADDR EQ 'O').STEP15
*        LABADDR=   ...,EXLST=XXXXXXXX
.STEP15  AIF   (T'&MODNAME EQ 'O').STEP16
*        MODNAME=   NOT APPLICABLE
.STEP16  AIF   (T'&RDONLY EQ 'O').STEP17
*        RDONLY=    NOT APPLICABLE
.STEP17  AIF   (T'&READKEY EQ 'O').STEP18
*        READKEY=   ...,MACRF=(..RK..)
.STEP18  AIF   (T'&READID EQ 'O').STEP19
*        READID=    ...,MACRF=(..RI..)
.STEP19  AIF   (T'&WRITEID EQ 'O').STEP20
*        WRITEID=   ...,MACRF=(..WI..)
.STEP20  AIF   (T'&WRITEKY EQ 'O').STEP21
*        WRITEKY=   ...,MACRF=(..WK..)
.STEP21  AIF   (T'&RECFORM EQ 'O').STEP22
*        RECFORM=   ...,RECFM=XXX
.STEP22  AIF   (T'&RECSIZE EQ 'O').STEP23
*        RECSIZE=   USE LENGTH IN READ/WRITE MACROS
.STEP23  AIF   (T'&RELTYPE EQ 'O').STEP24
*        RELTYPE=   NO EQUIVALENT FOR DEC
.STEP24  AIF   (T'&SEPASMB EQ 'O').STEP25
*        SEPASMB=   USER MUST CODE THE DCB AS A CSECT IF REQUIRED
.STEP25  AIF   (T'&SRCHM EQ 'O').STEP26
*        SRCHM=     ...,LIMCT=X,OPTCD=E
.STEP26  AIF   (T'&TRLBL EQ 'O').STEP27
*        TRLBL=     ...,EXLST=XXXXXXXX
.STEP27  AIF   (T'&VERIFY EQ 'O').STEP28
*        VERIFY=    ...,OPTCD=W
.STEP28  AIF   (T'&XTNTXIT EQ 'O').STEP29
*        XTNTXIT=   NO EQUIVALENT
.STEP29  ANOP
         SPACE 2
         MEND
