         MACRO
&NAME    DTFSD &BLKSIZE=,&EOFADDR=,&IOAREA1=,&IOAREA2=,&IOREG=,        X
               &RECFORM=,&RECSIZE=,&CONTROL=,&DELETFL=,&DEVADDR=,      X
               &DEVICE=,&ERROPT=,&WLRERR=,&WORKA=,&VARBLD=,&HOLD=,     X
               &MODNAME=,&RDONLY=,&SEPASMB=,&TRUNC=,&TYPEFLE=,         X
               &UPDATE=,&VERIFY=,&LABADDR,&NOTEPNT=
         DTFALL
&NAME    DS    0H
         MNOTE 0,'DTFSD NOT SUPPORTED BY O.S.'
         SPACE 2
*        BASIC CODE NECESSARY IS
*        DCB   DSORG=PS,.....      FOLLOWED BY
         SPACE 1
         AIF   (T'&BLKSIZE EQ 'O').STEP1
*        BLKSIZE=   ...,BLKSIZE=NN
.STEP1   AIF   (T'&EOFADDR EQ 'O').STEP2
*        EOFADDR=   ...,EODAD=XXXXXXXX
.STEP2   AIF   (T'&IOAREA1 EQ 'O').STEP3
*        IOAREA1=   ...,BUFNO=1,MACRF=(..M..)
.STEP3   AIF   (T'&IOAREA2 EQ 'O').STEP4
*        IOAREA2=   ...,BUFNO=2    OR MORE
.STEP4   AIF   (T'&IOREG EQ 'O').STEP5
*        IOREG=     ...,MACRF=(..L..)
.STEP5   AIF   (T'&RECFORM EQ HO').STEP6
*        RECFORM=   ...,RECFM=XXX
.STEP6   AIF   (T'&RECSIZE EQ 'O').STEP7
*        RECSIZE=   ...,LRECL=NNN
.STEP7   AIF   (T'&CONTROL EQ 'O').STEP8
*        CONTROL=   NOT REQUIRED
.STEP8   AIF   (T'&DELETFL EQ 'O').STEP9
*        DELETFL=   ...,DISP=      IN THE DD STATEMENT
.STEP9   AIF   (T'&DEVADDR EQ 'O').STEP10
*        DEVADDR=   ...,UNIT=      IN THE DD STATEMENT
.STEP10  AIF   (T'&DEVICE EQ 'O').STEP11
*        DEVICE=    ...,UNIT=      IN THE DD STATEMENT
.STEP11  AIF   (T'&ERROPT EQ 'O').STEP12
*        ERROPT=    ...,EROPT=ACC/SKP        FOR IGNORE OR SKIP (QSAM)
*                   ...,SYNAD=XXXXXXXX       FOR USER HANDLING ROUTINE
.STEP12  AIF   (T'&WLRERR EQ 'O').STEP13
*        WLRERR=    ...,SYNAD=XXXXXXXX
.STEP13  AIF   (T'&WORKA EQ 'O').STEP14
*        WORKA=     ...,MACRF=(..M..)
.STEP14  AIF   (T'&VARBLD EQ 'O').STEP15
*        VARBLD=    CODE (L'RECORD+4) IN LRECL FIELD OF DCB
.STEP15  AIF   (T'&HOLD EQ 'O').STEP16
*        HOLD=      USE O.S. ENQ/DEQ LOGIC FOR SPECIFIC RESOURCES
.STEP16  AIF   (T'&MODNAME EQ 'O').STEP17
*        MODNAME=   NOT APPLICABLE
.STEP17  AIF   (T'&RDONLY EQ 'O').STEP18
*        RDONLY=    NOT APPLICABLE
.STEP19  AIF   (T'&SEPASMB EQ 'O').STEP20
*        SEPASMB=   USER MUST CODE THE DCB AS A CSECT IF REQUIRED
.STEP20  AIF   (T'&TRUNC EQ 'O').STEP21
*        TRUNC=     TRUNCATED BLOCKS ASSUMED UNLESS RECFM=(...S) CODED
.STEP21  AIF   (T'&TYPEFLE EQ 'O').STEP22
*        TYPEFLE=   ...,MACRF=(G/P...)
*                   ALSO CODE INPUT OT OUTPUT IN OPEN MACRO
.STEP22  AIF   (T'&UPDATE EQ 'O').STEP23
*        UPDATE=    ...,MACRF=(G/R...,P/W...)
*                   ALSO CODE UPDATE IN OPEN MACRO FOR NON-WORK FILES
.STEP23  AIF   (T'&VERIFY EQ 'O').STEP24
*        VERIFY=    ...,OPTCD=W
.STEP24  AIF   (T'&LABADDR EQ 'O').STEP25
*        LABADDR=   ...,EXIST=XXXXXXXX
.STEP25  AIF   (T'&NOTEPNT EQ 'O').STEP26
*        NOTEPNT=   ...,MACRF=(..P..)
.STEP26  ANOP
         SPACE 2
         MEND
