         MACRO
&NAME    ENDFL
         SPACE
         MNOTE 0,'ENDFL  MACRO NOT SUPPORTED BY O.S.'
         SPACE
         MEND
