         MACRO
&NAME    ENTER &B1,&B2,&ENT=,&RENT=NO,&EXTENT=,&XTRN=,&BIT=NO,&EQU=NO, X
               &SP=0,&SA=72,&EC=YES
         GBLA  &#SA,&#SP
         GBLB  &#RENT
         GBLC  &SAVE
         LCLA  &R1,&R2,&K,&Q,&A
         LCLB  &B,&SW(2)
         LCLC  &N
         AIF   ('&SA' NE 'NO').ENT1
&SW(1)   SETB  1
.ENT1    AIF   ('&EC' EQ 'YES').ENT2
&SW(2)   SETB  1
.ENT2    AIF   (&SW(1)).ENT3
&#SA     SETA  &SA
&SAVE    SETC  'SAVE&SYSNDX'
.ENT3    ANOP
&N       SETC  '$PRIVATE'
&R1      SETA  13
&R2      SETA  13
         AIF   (T'&NAME EQ 'O').A1
&K       SETA  K'&NAME
&N       SETC  '&NAME'
.A1      AIF   (T'&B2 EQ 'O').A2
&R2      SETA  &B2
.A2      AIF   (T'&B1 EQ 'O').A3
&R1      SETA  &B1
         AGO   .A4
.A3      ANOP
.A4      AIF   (&R1 LT 2 OR &R1 GT 13).ERR2
         AIF   (&R2 LT 2 OR &R2 GT 13).ERR2
&N       CSECT
         AIF   ('&EQU' EQ 'NO').S
         REQU
.S       AIF   ('&BIT' EQ 'NO').T
         BEQU
.T       ANOP
         AIF   (T'&ENT EQ 'O').Q1
&Q       SETA  N'&ENT
         AIF   ('&ENT'(1,1) NE '(').SPEC
&A       SETA  1
.Q2      ANOP
&ENT(&A) EQU   *
         ENTRY &ENT(&A)
&A       SETA  &A+1
         AIF   (&A GT &Q).Q1
         AGO   .Q2
.SPEC    ANOP
&ENT     EQU   *
         ENTRY &ENT
.Q1      AIF   (T'&EXTENT EQ 'O').Q3
&Q       SETA  N'&EXTENT
         AIF   ('&EXTENT'(1,1) NE '(').SPEC2
&A       SETA  1
.Q4      ANOP
         ENTRY &EXTENT(&A)
&A       SETA  &A+1
         AIF   (&A GT &Q).Q3
         AGO   .Q4
.SPEC2   ENTRY &EXTENT
.Q3      AIF   (T'&XTRN EQ 'O').Q5
&Q       SETA  N'&XTRN
         AIF   ('&XTRN'(1,1) NE '(').SPEC3
&A       SETA  1
.Q6      ANOP
         EXTRN &XTRN(&A)
&A       SETA  &A+1
         AIF   (&A GT &Q).Q5
         AGO   .Q6
.SPEC3   EXTRN &XTRN
.Q5      ANOP
         USING *,15
         STM   14,12,12(13)        SAVE REGS
         AIF   ('&RENT' EQ 'YES').RTYPE
         AIF   (&SW(1)).ENT6
         LR    14,13               SAVE HSA ADDRESS
.ENT6    AIF   (&SW(2)).X2
         B     B&SYSNDX            BRANCH ROUND CONSTANTS
         DC    H'&K'
         AIF   (&K EQ 0).X1
         DC    CL8'&N'             EYECATCHER
         AGO   .X2
.X1      DC    CL8'NONAME'         PC EYECATCHER
.X2      ANOP
         AIF   (NOT &SW(1)).ENT7
         AIF   (&SW(2)).ENT4
B&SYSNDX DS    0H
         AGO   .ENT4
.ENT7    ANOP
B&SYSNDX BAL   13,A&SYSNDX         BRANCH AROUND SAVE AREA
         AIF   (&R1 NE 13).A5
         AIF   (T'&B2 NE 'O').Z1
         USING *,13
         AGO   .Z2
.Z1      USING *,13,&R2
&B       SETB  1
.Z2      DROP  15
.A5      ANOP
&SAVE    DS    ((&#SA+3)/4)F       SAVE AREA
         CNOP  0,4
A&SYSNDX EQU   *
.ENT4    AIF   (NOT &SW(1)).ENT5
         AIF   (T'&B1 EQ 'O').RT8
         AIF   (&R1 EQ 13).ERR5
.ENT5    ANOP
         AIF   (&R1 EQ 13).A6
         BALR  &R1,0               LOAD BASE REGISTER
         AIF   (T'&B2 EQ 'O').A7
         USING *,&R1,&R2
         DROP  15
         AGO   .A8
.A7      ANOP
         USING *,&R1
         DROP  15
         AGO   .A6
.A8      LA    &R2,2048(0,&R1)     LOAD SECOND
         LA    &R2,2048(0,&R2)        BASE REGISTER
&B       SETB  0
.A6      AIF   (&B).A8
         AIF   (&SW(1)).RT8
         AIF   (&#SA LT 8).ERR6
         ST    13,8(0,14)          FORWARD POINTER
         ST    14,4(0,13)          BACKWARD POINTER
         MEXIT
.RTYPE   ANOP
&#RENT   SETB  1
&#SP     SETA  &SP
         AIF   (T'&B1 EQ 'O').ERR3
         AIF   ('&B1' EQ '13').ERR4
.RT9     AIF   ('&SA' EQ 'NO').RT1
&#SA     SETA  &SA
         LR    14,13               SAVE HSA ADDRESS
         GETMAIN  R,LV=&SA,SP=&SP  GET SAVE AREA STORAGE
         LR    13,1                LOAD SAVE AREA ADDRESS
         ST    13,8(0,14)          FORWARD POINTER
         ST    14,4(0,13)          BACKWARD POINTER
         LM    14,1,12(14)         RESTORE LINKAGE REGISTERS
.RT1     B     R&SYSNDX            BRANCH ROUND CONSTANTS
         DC    H'&K'
         AIF   (&K EQ 0).RT2
         DC    CL8'&N'             EYECATCHER
         AGO   .RT3
.RT2     DC    CL8'NONAMER'        PC EYECATCHER
.RT3     AIF   (T'&B1 EQ 'O').RT4
         AIF   ('&B1' EQ '13').RT10
R&SYSNDX BALR  &B1,0
         AIF   (T'&B2 EQ 'O').RT5
         USING *,&B1,&B2
         LA    &B2,2048(0,&B1)     LOAD SECOND
         LA    &B2,2048(0,&B2)       BASE REGISTER
         AGO   .RT7
.RT5     USING *,&B1
.RT7     DROP  15
         AGO   .RT6
.RT10    AIF   (T'&B2 EQ 'O').RT4
         DROP  15
         USING &N,15,&B2
R&SYSNDX LA    &B2,2048(0,15)
         LA    &B2,2048(0,&B2)
         AGO   .RT6
.RT4     ANOP
R&SYSNDX EQU   *
.RT6     AIF   ('&SA' EQ 'NO').RT8
.RT8     MEXIT
.ERR2    MNOTE 12,'INVALID BASE REGISTER ASSIGNMENT'
         MEXIT
.ERR3    MNOTE *,'NO BASE REGISTER ASSIGNED - 15 ASSUMED'
         AGO   .RT9
.ERR4    MNOTE *,'REG 13 INVALID AS BASE - REG 15 ASSUMED'
         AGO   .RT9
.ERR5    MNOTE *,'REG 13 INVALID AS BASE - REG 15 ASSUMED'
         AGO   .RT8
.ERR6    MNOTE 8,'SAVE AREA IS TOO SMALL FOR POINTERS'
         AGO   .RT8
         MEND
