         MACRO
&NAME    EOJ
&NAME    DS    0H
         MNOTE 0,'EOJ NOT SUPPORTED BY O.S.'
         SPACE 2
*        TO RETURN CONTROL TO THE OPERATING SYSTEM, THE MACROS
*                       'RETURN' OR 'WAYOUT' MUST BE ISSUED AT
*                       THE SAME CALLING LEVEL AT WHICH THE USER
*                       PROGRAM WAS ENTERED  I.E. THE MAINLINE MODULE.
*                       NOTE THAT CALLS TO THE MODULE EOJ1 WILL NOT
*                       TERMINATE PROCESSING - RETURN OR WAYOUT IS
*                       REQUIRED AFTER THE CALL STATEMENT.
         SPACE 2
         MEND
