         MACRO
&NAME    ESETL
&NAME    DS    0H
         SPACE
         MNOTE 0,'ESETL MACRO FORMAT VARIES UNDER O.S.'
         SPACE
         MEND
