         MACRO
&NAME    EXCP
&NAME    DS    0H
         MNOTE 0,'EXCP VARIES UNDER O.S.'
         PIOCS
         MEND
<>       ENDUP
