         MACRO
&NAME    F1DSCB &ORG
         SPACE
         AIF   (T'&ORG EQ 'O').DSECT
         AIF   ('&ORG' EQ 'DSECT').DSECT
         ORG   &ORG
&NAME    EQU   *                   FORMAT 1 DSCB
         AGO   .CONT
.DSECT   ANOP
&NAME    DSECT                     FORMAT 1 DSCB
.CONT    ANOP
         SPACE
DS1DSNAM DS    CL44                DATA SET NAME
DS1FMTID DS    CL1                 FORMAT IDENTIFIER = X'F1'
DS1DSSN  DS    CL6                 VOLUME SERIAL NUMBER
DS1VOLSQ DS    CL2                 VOLUME SEQUENCE NUMBER
DS1CREDT DS    XL3                 CREATION DATE
DS1EXPDT DS    XL3                 EXPIRATION DATE
DS1NOEPV DS    XL1                 NO OF EXTENTS
DS1NOBDB DS    XL1                 NO OF BYTES USED IN LAST PDS BLK
         DS    CL1                 RESERVED
DS1SYSCD DS    CL13                PROGRAMMING SYSTEM CODE ID
         DS    CL7                 RESERVED
DS1DSORG DS    XL2                 DATASET ORGANISATION
DS1RECFM DS    XL1                 RECORD FORMAT
DS1OPTCD DS    XL1                 OPTION CODES
DS1BLKL  DS    XL2                 BLOCK LENGTH
DS1LRECL DS    XL2                 LOGICAL RECORD LENGTH
DS1KEYL  DS    XL1                 KEYLENGTH
DS1REKP  DS    XL2                 RELATIVE KEY POSITION
DS1DSIND DS    XL1                 DATA SET INDICATORS
DS1SCALO DS    XL4                 SECONDARY ALLOCATION
DS1LSTAR DS    XL3                 POINTER TO LAST WRITTEN BLOCK
DS1TRBAL DS    XL2                 LL PART OF DISK ADDRESS
         DS    CL2                 RESERVED
DS1EXT1  DS    0XL10               FIRST EXTENT DESCRIPTION
         DS    XL1                 EXTENT TYPE INDICATOR
         DS    XL1                 EXTENT SEQUENCE NO (M)
         DS    XL4                 LOWER LIMIT OF EXTENT(CCHH)
         DS    XL4                 UPPER LIMIT OF EXTENT(CCHH)
DS1EXT2  DS    XL10                SECOND EXTENT DESCRIPTION
DS1EXT3  DS    XL10                THIRD  EXTENT DESCRIPTION
DS1PTRDS DS    XL5                 CCHHR OF F2DSCB OR F3DSCB
         MEND
