         MACRO
&NAME    F3DSCB &ORG
         SPACE
         AIF   (T'&ORG EQ 'O').DSECT
         AIF   ('&ORG' EQ 'DSECT').DSECT
         ORG   &ORG
&NAME    EQU   *                   FORMAT 3 DSCB
         AGO   .CONT
.DSECT   ANOP
&NAME    DSECT                     FORMAT 3 DSCB
.CONT    ANOP
         SPACE
DS3KEYID DS    XL4                 KEY IDENTIFIER = 4X'03'
DS3EXT4  DS    XL10                EXTENT DESCRIPTION
DS3EXT5  DS    XL10                EXTENT DESCRIPTION
DS3EXT6  DS    XL10                EXTENT DESCRIPTION
DS3EXT7  DS    XL10                EXTENT DESCRIPTION
DS3FMTID DS    CL1                 FORMAT IDENTIFIER = X'F3'
DS3EXT8  DS    XL10                EXTENT DESCRIPTION
DS3EXT9  DS    XL10                EXTENT DESCRIPTION
DS3EXT10 DS    XL10                EXTENT DESCRIPTION
DS3EXT11 DS    XL10                EXTENT DESCRIPTION
DS3EXT12 DS    XL10                EXTENT DESCRIPTION
DS3EXT13 DS    XL10                EXTENT DESCRIPTION
DS3EXT14 DS    XL10                EXTENT DESCRIPTION
DS3EXT15 DS    XL10                EXTENT DESCRIPTION
DS3EXT16 DS    XL10                EXTENT DESCRIPTION
DS3PTRDS DS    CL5                 RESERVED
         MEND
