         MACRO
&NAME    F4DSCB &ORG
         SPACE
         AIF   (T'&ORG EQ 'O').DSECT
         AIF   ('&ORG' EQ 'DSECT').DSECT
         ORG   &ORG
&NAME    EQU   *                   FORMAT 4 DSCB
         AGO   .CONT
.DSECT   ANOP
&NAME    DSECT                     FORMAT 4 DSCB
.CONT    ANOP
         SPACE
DS4KEYID DS    XL44                KEY IDENTIFIER = 44X'04'
DS4IDEMT DS    CL1                 FORMAT IDENTIFIER =X'F4'
DS4HPCHR DS    CL5                 HIGHEST DISK ADDRESS OF F1DSCB
DS4DSREC DS    XL2                 NO OF AVAIL DSCBS IN VTOC
DS4CCHH  DS    XL4                 CCHH OF NEXTALT
DS4NOATK DS    XL2                 NO OF ALT TRACKS
DS4CTOCI DS    XL1                 VTOC INDICATORS
DS4NOEXT DS    XL1                 VTOC CONSTANT = X'01'
         DS    CL2                 RESERVED
DS4DEVSZ DS    XL4                 NO OF LOGICAL CYLINDERS OR TRACKS
DS4DEVTK DS    XL2                 DEVICE TRACK LENGTH
DS4DEVI  DS    XL1                 CONSTANT FOR KEYED BLOCK
DS4DEVL  DS    CL1                 CONSTANT FOR LAST BLOCK
DS4DEVK  DS    XL1                 CONSTANT FOR NO KEY IN BLOCK
DS4DEVFG DS    XL1                 FLAG BYTE
DS4DEVTL DS    XL2                 DEVICE TOLERANCE
DS4DEVDT DS    XL1                 DSCBS/TRK
DS4DEVDB DS    XL1                 DIRECTORY BLOCKS/TRK
         DS    CL24                RESERVED
DS4F6PTR DS    CL5                 D/A ADDRESS OF 1ST F6DSCB
DS4VTOCE DS    0CL10               EXTENT DESCRIPTION OF VTOC
DS4IND   DS    CL1
DS4EXSEQ DS    CL1
DS4LEXT  DS    CL4
DS4HEXT  DS    CL4
         DS    CL25                RESERVED
         MEND
