         MACRO
&NAME    F5DSCB &ORG
         SPACE
         AIF   (T'&ORG EQ 'O').DSECT
         AIF   ('&ORG' EQ 'DSECT').DSECT
         ORG   &ORG
&NAME    EQU   *                   FORMAT 5 DSCB
         AGO   .CONT
.DSECT   ANOP
&NAME    DSECT                     FORMAT 5 DSCB
.CONT    ANOP
         SPACE
DS5KEYID DS    XL4                 KEY IDENTIFIER = 4X'05'
DS5AVEXT DS    8CL5                8AVAILABLE EXTENTS
DS5FMTID DS    CL1                 FORMAT IDENTIFIER = X'F5'
DS5MAVET DS    18CL5               18 AVAILABLE EXTENTS
DS5PTRDS DS    CL5                 D/A ADDRESS OF NEXT F5DSCB
         MEND
