         MACRO
&NAME    F6DSCB &ORG
         SPACE
         AIF   (T'&ORG EQ 'O').DSECT
         AIF   ('&ORG' EQ 'DSECT').DSECT
         ORG   &ORG
&NAME    EQU   *                   FORMAT 6 DSCB
         AGO   .CONT
.DSECT   ANOP
&NAME    DSECT                     FORMAT 6 DSCB
.CONT    ANOP
         SPACE
DS6KEYID DS    CL4                 KEY ID = 4X'06'
DS6AVEXT DS    8CL5                SHARED EXTENTS
DS6FMTID DS    CL1                 FORMAT IDENTIFIER
DS6MAVET DS    18CL5
DS6PTRDS DS    CL5                 D/A ADDRES OF NEXT F6DSCB
         MEND
