         MACRO
&NAME    FETCH
&NAME    DS    0H
         MNOTE 0,'FETCH NOT SUPPORTED BY O.S.'
         SPACE 2
*        FOR TRANSFER OF CONTROL USE O.S. MACROS
*                       'LINK' AND 'XCTL' AND,
*                       SEE ALSO SUPERVISOR AND DATA MANAGEMENT
*                       SERVICES MANUAL.
         SPACE 2
         MEND
