         MACRO
&NAME    FIX   &FWD,&FP=YES
         GBLB  &FXA(2)
         GBLC  &FXN(2)
         AIF   ('&FWD'(1,1) EQ '(').REG
         AIF   (T'&FWD NE 'E' AND T'&FWD NE 'F').ERR
&NAME    LA    1,&FWD
         AGO   .A
.REG     AIF   ('&FWD' EQ '(1)').NAMIT
&NAME    LR    1,&FWD(1)
         AGO   .A
.NAMIT   ANOP
&NAME    CNOP  0,4
.A       AIF   ('&FP' NE 'NO').C
         AIF   (&FXA(1)).SEC
&FXN(1)  SETC  'X&SYSNDX.X'
         AGO   .SEC
.C       AIF   ('&FP' NE 'YES').ERR2
         AIF   (&FXA(2)).SEC2
&FXN(2)  SETC  'X&SYSNDX.X2'
         AGO   .SEC2
.SEC     BAL   14,&FXN(1)
         AIF   (&FXA(1)).END
         AGO   .B
.SEC2    BAL   14,&FXN(2)
         AIF   (&FXA(2)).END
.B       B     R&SYSNDX
         AIF   ('&FP' EQ 'YES').FPT#X
&FXA(1)  SETB  1
X&SYSNDX.X STM 15,1,16(13)
         OI    B&SYSNDX+1,X'F0'
         SR    0,0
         L     1,0(0,1)
         LTR   1,1
         BNM   *+8
         NI    B&SYSNDX+1,X'0F'
         SLDL  0,8
B&SYSNDX B     *+12
         SH    0,=H'128'
         NI    S&SYSNDX+1,X'0F'
         SH    0,=H'64'
         BM    Z&SYSNDX
         SLL   0,2
         LR    15,0
         SR    0,0
         SLDA  0,0(15)
         LTR   1,1
         BNM   *+8
         AH    0,=H'1'
O&SYSNDX L     1,24(0,13)
S&SYSNDX B     *+10
         OI    *-3,X'F0'
         LCR   0,0
         ST    0,0(0,1)
         LM    15,0,16(13)
         BR    14
Z&SYSNDX SR    0,0
         B     O&SYSNDX
         AGO   .OUT
.FPT#X   ANOP
&FXA(2)  SETB  1
X&SYSNDX.X2 ST 15,16(0,13)
         SDR   0,0
         AE    0,0(0,1)
         AW    0,X&SYSNDX.C
         STD   0,X&SYSNDX.D
         L     15,X&SYSNDX.D+4
         BC    11,A&SYSNDX
         LCR   15,15
A&SYSNDX ST    15,0(0,1)
         L     15,16(0,13)
         BR    14
X&SYSNDX.D DC  D'0'
X&SYSNDX.C DC  X'4E00000000000000'
.OUT     ANOP
R&SYSNDX CNOP  0,4
.END     MEXIT
.ERR     MNOTE 8,'NUMBER TO BE FIXED IS NOT A FULLWORD'
         MEXIT
.ERR2    MNOTE 8,'FP=&FP IS AN INVALID OPERAND'
         MEND
