         MACRO
&NAME    FLOAT &FWD,&FP=YES
         GBLB  &#A#(2)
         GBLC  &N(2)
         AIF   ('&FWD'(1,1) EQ '(').REG
         AIF   (T'&FWD NE 'F' AND T'&FWD NE 'E').ERR1
&NAME    LA    1,&FWD
         AGO   .A
.REG     AIF   ('&FWD' EQ '(1)').NAMIT
&NAME    LR    1,&FWD(1)
         AGO   .A
.NAMIT   ANOP
&NAME    CNOP  0,4
.A       AIF   ('&FP' NE 'NO').C
         AIF   (&#A#(1)).SEC
&N(1)    SETC  'F&SYSNDX.F'
         AGO   .SEC
.C       AIF   ('&FP' NE 'YES').ERR2
         AIF   (&#A#(2)).SEC2
&N(2)    SETC  'F&SYSNDX.F2'
         AGO   .SEC2
.SEC     BAL   14,&N(1)
         AIF   (&#A#(1)).END
         AGO   .B
.SEC2    BAL   14,&N(2)
         AIF   (&#A#(2)).END
.B       B     R&SYSNDX
         AIF   ('&FP' EQ 'YES').FPT#F
&#A#(1)  SETB  1
F&SYSNDX.F MVI F&SYSNDX.A+3,0
         STM   15,1,16(13)
         L     0,0(0,1)
         OI    F&SYSNDX.N+1,X'F0'
         LTR   0,0
         BNM   *+10
         LCR   0,0
         NI    F&SYSNDX.N+1,X'0F'
         SR    1,1
         SRDL  0,8
         STM   0,1,F&SYSNDX.D
         LA    15,4
         LA    1,F&SYSNDX.D+1(0)
F&SYSNDX.B TM  0(1),X'F0'
         BNZ   F&SYSNDX.C(0)
         TM    0(1),X'0F'
         BNZ   F&SYSNDX.E(0)
         LA    1,1(0,1)
         BCT   15,F&SYSNDX.B(0)
F&SYSNDX.G L   1,24(0,13)
         ST    15,0(0,1)
F&SYSNDX.N B   *+8
         OI    0(1),X'80'
         LM    15,0,16(13)
         BR    14
F&SYSNDX.E MVI F&SYSNDX.A+3,4
F&SYSNDX.C SH  15,=H'4'
         LCR   15,15
         SLL   15,3
F&SYSNDX.A LA  15,0(0,15)
         L     1,F&SYSNDX.D+4(0)
         SLDL  0,0(15)
         STM   0,1,F&SYSNDX.D
         SRL   15,2
         LA    0,72
         SLR   0,15
         STC   0,F&SYSNDX.D(0)
         L     15,F&SYSNDX.D(0)
         B     F&SYSNDX.G(0)
         AGO   .OUT
.FPT#F   ANOP
&#A#(2)  SETB  1
F&SYSNDX.F2 STM 14,15,12(13)
         L     14,0(0,1)
         LPR   15,14
         N     14,F&SYSNDX.Y
         STM   14,15,F&SYSNDX.D
         OI    F&SYSNDX.D,X'4E'
         SDR   0,0
         AD    0,F&SYSNDX.D
         STE   0,0(0,1)
         LM    14,15,12(13)
         BR    14
         CNOP  0,4
F&SYSNDX.Y DC  X'80000000'
.OUT     ANOP
F&SYSNDX.D DC  D'0'
R&SYSNDX CNOP  0,4
.END     MEXIT
.ERR1    MNOTE 8,'NUMBER TO BE FLOATED IS NOT A FULLWORD'
         MEXIT
.ERR2    MNOTE 8,'FP=&FP IS AN INVALID OPERAND'
         MEND
