         MACRO
&NAME    GET
&NAME    DS    0H
         SPACE
         MNOTE 0,'GET   MACRO FORMAT VARIES UNDER O.S.'
         SPACE
         MEND
