         MACRO
&NAME    GETIME
&NAME    DS    0H
         MNOTE 0,'GETIME NOT SUPPORTED BY O.S.'
         SPACE 2
*        FOR GETIME STANDARD USE O.S. 'TIME DEC'
*        FOR GETIME BINARY USE O.S. 'TIME BIN'
*        FOR GETIME TU USE O.S. 'TIME TU'
         SPACE 2
         MEND
