         MACRO
&NAME    GTFDISK &DISK
 SPACE
&NAME    EQU   *
         L     R10,V&DISK             * R10 -> TABLE OF COUNTS PER CYL*
         MVC   HWD(2),CC              * ALIGN 'CC' OF MBBCCHHR        *
         LH    R9,HWD                 * INTO A REGISTER               *
         SLL   R9,2                   * TIMES 4 FOR OFFSET            *
         AR    R10,R9                 * CALCULATE LOCN IN TABLE       *
         L     R8,0(0,R10)            *                               *
         LA    R8,1(0,R8)             * *  AND INCREASE COUNT BY 1   **
         ST    R8,0(0,R10)            *                               *
         L     R8,CT&DISK             *    INCREASE COUNT OF          *
         LA    R8,1(0,R8)             **   DISK ACCESSES BY ONE      **
         ST    R8,CT&DISK             *                               *
         MVC   OUTCC1(2),OLD&DISK     *   BUILD                       *
         MVC   OUTCC2(2),HWD          *     UP                        *
         MVC   UCBID(4),CHAR&DISK     *       RECORD                  *
         MVC   OLD&DISK.(2),HWD       *   CHANGE LAST POSITION OF HEAD*
**       PUT   SYSUT2,OUTCC1          *   WRITE RECORD                *
 SPACE
         PUT   SYSUT2,OUTCC1          *                               *
 SPACE
         B     LOOP1                  *  GET ANOTHER RECORD           *
CHAR&DISK  DC    C'0&DISK'            * IDENTIFIER OF DEVICE          *
V&DISK     DC    V(TAB&DISK)          * ADDRESS OF TABLE              *
CT&DISK    DC    A(0)                 * ACCESS COUNT                  *
OLD&DISK   DC   AL2(419)                *  INITIAL VALUE OF 'FROM' CC *
 SPACE
         MEND
