         MACRO
&NAME    GTFREPT &DISK=,&TSTP=
.*
.*             MACRO TO EASE THE REDUCTION OF DISK MOVEMENT DATA
.*
         LCLA  &A,&B
.*
.*             INVOCATION :-
.*                            NAME     GTFREPT DISK=(150,151,...)
.*
.*             THIS WILL RESULT IN THE PRODUCTION OF CODE TO PRODUCE
.*
.*             1.   A REPORT ON THE # OF SIO TO EACH CYLINDER OF
.*
.*                  EACH SPECIFIED UCB
.*
.*             2.   A SUMMARY OF THE NUMBER OF SIO TO EACH UCB
.*
.*             3.   A FILE OF RECORDS CONTAININING  'FROM' AND 'TO'
.*
.*                  CYLINDER ADDRESS AND UCB IDENTIFIER
.*
.*
.*             OTHER USER MACROS INVOKED :-
.*
.*             BEGIN, EQUREG       SAVES ETC
.*
.*             GTFQ, GTFDISK, GTFSUMMY, GTFTAB, GTFARRAY, GTFCONST
.*
.*             ALL THE ABOVE SHOULD BE PROVIDED 'IN-STREAM'
.*
.*             DSECT 'SIOCOMP' IS USED TO PROVIDE ADDRESSABILITY TO
.*
.*             THE SIO COMPREHENSIVE RECORD
.*
.*
.*             ASSUMPTIONS :-
.*
.*           1.  THAT GTF HAS BEEN ENHANCOD TO PROVIDE THE FULL
.*
.*               DISK SEEK ADDRESS FROM THE UCB (MBBCCHHR) IN THE
.*
.*               FIRST TWO WORDS OF THE 5-WORD RQE FIELD. THE
.*
.*               REMAINDER OF THE FIELD IS FILLED WITH HEX'FFF...'
.*
.*               (THE VOLUME SERIAL NUMBER MAY BE SAVED IN THE
.*
.*             HEX 'FFF... ' PART OF THE FIELD)
.*
.*           2. THAT THE SIO RECORDS PROCESSED DO NOT HAVE A TIMESTAMP.
.*
.*              THIS MAY BE CIRCUMVENTED BY CODING TSTP=TIME AS AN
.*
.*              ADDITIONAL OPERAND OF THE GTFREPT MACRO. THIS WILL
.*
.*              GENERATE A DSECT WHICH ALLOWS FOR TIME STAMPS
         AIF   (N'&DISK GT 28).ERR1
.*                                       OF DISK ? ADDRESSING PROBLEMS
         TITLE 'ROUTINE TO PRODUCE GTF DISK ANALYSIS REPORT'
.*
         AIF   ('&NAME' EQ '').DGFAULT       NAME FIELD BLANK ?
.*
&NAME    BEGIN ,                   *** MACRO CALL ***
         AGO   .MIS1
.DGFAULT ANOP
         BEGIN ,                   *** MACRO CALL ***
.MIS1    ANOP
         EJECT
         LA    R3,EODAD .        * R3 -> EODAD ROUTINE (ADDRESSING)   *
         USING EODAD,R3
         LA    R4,REPORT2 .      * R4 -> SUMMARY ROUTINE (ADDRESSING) *
         USING REPORT2,R4
         LA    R2,SYSUT1         * ENSURE ADDRESSABILITY OF CONSTANTS *
         USING SYSUT1,R2
         LA    R11,AREA .        * R11 -> AREA                        *
         USING SIOCOMP,R11
         SPACE
         SPACE
         OPEN  (SYSUT1,,SYSUT2,(OUTPUT),SYSPRINT,(OUTPUT))
         SPACE
LOOP1    DS    0H .
         GET   SYSUT1,AREA .     * READ A RECORD                      *
         SPACE
***            FILTER OUT ALL BUT SIO COMPREHENSIVE RECORD          ***
         SPACE 2
         CLI   AREAID,TIMESTP .  * TIME STAMP ?                       *
         BE    LOOP1 .           * YES                                *
         CLI   AREAID,LOSTDTA1 . * LOST DATA - TYPE 1 ?               *
         BE    LOOP1 .           * YES                                *
         CLI   AREAID,LOSTDTA2 . * LOST DATA - TYPE 2 ?               *
         BE    LOOP1 .           * YES                                *
         CLI   AREAID,SIOC .     * SIO COMPREHENSIVE ?                *
         BNE   LOOP1 .           * NO                                 *
         CLC   AREAEID(2),SIOCEID .SIO EID ?                          *
         BNE   LOOP1 .           * NO                                 *
         CLC   CC(2),MINUS1      * IS CYLINDER ADDRESS X'FFFF' - IF   *
*                                  SO IT IS DUE TO RECORD BEING WRITTEN
*                                  WHICH WAS INITIALISED BY THE MOD TO*
*                                  GTF BUT NO DISK ADDRESS HAS BEEN   *
*                                  MOVED IN                           *
         BE    LOOP1 .           * YES - IGNORE IT                    *
         SPACE 2
SIOC     EQU   0 .               * SIO FORMAT ID                      *
TIMESTP  EQU   4 .               * TIME STAMP FORMAT ID               *
LOSTDTA1 EQU   5 .               * LOST DATA                          *
LOSTDTA2 EQU   6 .               *  FORMAT IDS                        *
         EJECT
***            INTERROGATE THE UCB FIELD FOR THE DESIRED UCBS       ***
         SPACE 2
&A       SETA  N'&DISK
&B       SETA  1
.LOOP001 ANOP
         AIF   (&B GT &A).END1
         GTFQ  &DISK(&B)       *** MACRO CALL ***
&B       SETA  &B+1
         AGO   .LOOP001
.END1    ANOP
         B     LOOP1             * NONE OF THOSE - GET ANOTHER RECORD *
         EJECT
***            PROCESS THE APPROPRIATE TABLE ENTRIES                ***
         SPACE 2
&B       SETA  1
.LOOP002 ANOP
         AIF   (&B GT &A).END2
D&DISK(&B)     GTFDISK &DISK(&B) * MACRO CALL ***
.*
&B       SETA  &B+1
         AGO   .LOOP002
.*
.END2    ANOP
         EJECT
***            END OF INPUT - PROCESS TABLES AND REPORT             ***
         SPACE 2
EODAD    DS    0H                *                                    *
&B       SETA  1
.LOOP003 ANOP
         AIF   (&B GT &A).END3
         GTFTAB &DISK(&B)      *** MACRO CALL ***
&B       SETA  &B+1
         AGO   .LOOP003
.END3    ANOP
         EJECT
***            PRINT SECOND REPORT                                  ***
         SPACE 2
REPORT2  DS    0H .              *                                    *
         SPACE 2
**       PUT   SYSPRINT,SUMHDG1  * WRITE A HEADING                    *
         SPACE
         PUT   SYSPRINT,SUMHDG1  * WRITE A HEADING                    *
         SPACE
**       PUT   SYSPRINT,SUMHDG2  * WRITE A HEADING                    *
         SPACE
         PUT   SYSPRINT,SUMHDG2  * WRITE A HEADING                    *
&B       SETA  1
.LOOP004 ANOP
         AIF   (&B GT &A).END4
         GTFSUMMY &DISK(&B)    *** MACRO CALL ***
&B       SETA  &B+1
         AGO   .LOOP004
.END4    ANOP
.*
         SPACE 4
***            CLOSE FILES AND RETURN                               ***
         SPACE 2
         CLOSE (SYSUT1,,SYSUT2,,SYSPRINT)
         SPACE
         L     R13,4(0,R13) .    * R13 -> OLD SAVE AREA               *
         LM    R14,R12,12(R13) . * RESTORE REGISTERS                  *
         LA    R15,0 .           * RETURN CODE                        *
         BR    R14 .             * BACK TO SCP                        *
         EJECT
***            CONSTANTS ETC                                        ***
         SPACE 2
**SYSUT1 DCB   DDNAME=SYSUT1,DSORG=PS,MACRF=GM,EODAD=EODAD
         SPACE
SYSUT1   DCB   DDNAME=SYSUT1,DSORG=PS,MACRF=GM,EODAD=EODAD
         SPACE
**SYSUT2 DCB   DDNAME=SYSUT2,DSORG=PS,MACRF=PM,LRECL=8,BLKSIZE=2000,   *
               RECFM=FB
         SPACE
SYSUT2   DCB   DDNAME=SYSUT2,DSORG=PS,MACRF=PM,LRECL=8,BLKSIZE=2000,   *
               RECFM=FB
         SPACE
**SYSPRINT DCB DDNAME=SYSPRINT,MACRF=PM,DSORG=PS,LRECL=121,BLKSIZE=1210*
               ,RECFM=FBA
         SPACE
SYSPRINT DCB   DDNAME=SYSPRINT,MACRF=PM,DSORG=PS,LRECL=121,BLKSIZE=1210*
               ,RECFM=FBA
         EJECT
DWK      DS    D .               * WORK AREA                          *
HWD      DS    H .               * ANOTHER WORK AREA                  *
MINUS1   DC    H'-1' .           * COMPARAND USED TO FILTER OUT SIO   *
*                                * COMPREHENSIVES WHICH ARE 'BAD'     *
*                                                                     *
***            OUTPUT RECORD ON SYSUT2                              ***
*                                                                     *
OUTCC1   DS    CL2 .             * FROM  CYLINDER                     *
OUTCC2  DS    CL2 .              * TO    CYLINDER                     *
UCBID    DS    CL4 .             * UCB IDENTITY                       *
*
         DC    12C' ' .          * SPARE AREA FOR SM-023 (SHORT RCDS) *
MASK     DC    X'40',7X'20',X'2120' * EDIT PATTERN                    *
*                                                                     *
***            HEADINGS AND PRINTLINES                              ***
*                                                                     *
HEAD1    DC    C'1',10C' ',C' CYLINDER ACCESS COUNT FOR DEVICE '
HEAD1DEV DS    CL3
         DC    84C' '
HEAD2    DC    C'-',10C' ',C'CYLINDER #',10C' ',C'SIO COUNT',80C' '
LINE1    DC    14C' '
LINE1CYL DS    CL3
         DC    13C' '
LINE1CT  DS    CL10              * SIO COUNT                          *
         DC    85C' '
TAIL     DC    C'-',10C' ',C' END OF REPORT FOR DEVICE '
TAILVOL  DS    CL3
         DC    81C' '
SUMHDG1  DC    C'1',10C' ',C'TOTALS BY DISK            ',84C' '
SUMHDG2  DC    C'-',20C' ',C' DISK UNIT',10C' ',C'TOTAL ACCESSES'
         DC    70C' '
SUMLINE  DC    C' ',23C' '
SUMUNIT  DS    CL3
         DC    15C' '
SUM      DS    CL10
         DC    70C' '
SIOCEID  DC    X'7000'           * EID FOR SIO COMPREHENSIVE          *
         EJECT
***            CONSTANTS FOR GTF UCB ADDRESSES                      ***
         SPACE 2
&B       SETA  1
.LOOP005 ANOP
         AIF   (&B GT &A).END5
         GTFCONST &DISK(&B)    *** MACRO CALL ***
&B       SETA  &B+1
         AGO   .LOOP005
.END5    ANOP
         SPACE 4
         LTORG
AREA     DS    CL200 .           * RECORDS READ IN HERE               *
         EJECT
***            DSECT FOR SIO COMPREHENSIVE RECORD                   ***
         SPACE 2
SIOCOMP  DSECT
RDW      DS    CL4 .             * RDW                                *
         DS    CL1               * ID                                 *
AREAID   DS    CL1 .             * ID TYPE                            *
AREAEID  DS    CL2 .             * EID                                *
         AIF   ('&TSTP' NE 'TSTP').NOTIME                             *
         DS    CL12 .            * TIME STAMP                         *
.NOTIME  ANOP
         DS    CL8 .             * JOBNAME                            *
         DS    CL4 .             * RQE TCB                            *
         DS    CL2 .             * SIO COMPLETION CODE                *
UCB      DS    CL2 .             * UCB IN HEX                         *
         DS    CL4 .             * CAW                                *
         DS    CL8 .             * CSW                                *
M        DS    CL1 .             * DISK                               *
BB       DS    CL2 .             *  SEEK                              *
CC       DS    CL2 .             *   ADDRESS                          *
HH       DS    CL2 .             *    ADDED BY                        *
R        DS    CL1 .             *     STOCK EXCHANGE MOD             *
VOLSERNO DS    CL6 .             * VOL SERIAL # ADDED IN SAME WAY     *
         EJECT
***            TABLES FOR CYLINDER ACCESS COUNT
***            - ONE FOR EACH DISK
         SPACE 2
&B       SETA  1
.LOOP006 ANOP
         AIF   (&B GT &A).END6
         GTFARRAY &DISK(&B)    *** MACRO CALL ***
&B       SETA  &B+1
         AGO   .LOOP006
.ERR1    ANOP
         MNOTE 12,'*** MORE THAN 28 SUB-OPERANDS OF DISK ***'
         MNOTE 12,'*** ADDRESSING PROBLEMS WILL ARISE ***'
         MEXIT
.END6    ANOP
         MEND
