         MACRO
&NAME    INCR  &FIELD
&NAME    DS    0H
         L     R2,&FIELD           LOAD COUNT
         LA    R2,1(0,R2)          INCREMENT BY 1
         ST    R2,&FIELD           STORE BACK
         SPACE
         MEND
         MACRO
         SUMMY &A,&B
         SPACE
         L     R2,&A               R2 HAS COUNT IN BINARY
         CVD   R2,DWORK            INTO DECIMAL
         MVC   &B.(10),MASK2     * EDIT PATTERN                       *
         ED    &B.(10),DWORK+3   * EDIT IN COUNT                      *
         SPACE
         MEND
         MACRO
         CLEAR &CT
         XC    &CT.(4),&CT         SET FIELD TO ZERO
         MEND
         EJECT
SVCANAL  BEGIN
         EJECT
***            ROUTINE TO ANALYSE LINK, LOAD & XCTL ACTIVITY        ***
         SPACE 2
***            ASSUMPTIONS  SYSUT1 IS SORTED 30 BYTE RECORDS -      ***
***            MAPPED BY DSECT 'REC'                                ***
***            SORTED BY MODULE NAME & SVC CALL WITHIN MODULE NAME  ***
         SPACE 2
         OPEN  (SYSUT1,,SYSPRINT,(OUTPUT))
         SPACE
         LA    R11,AREA            R11 -> INPUT RCD
         USING REC,R11
         SPACE
LOOP     GET   SYSUT1,AREA         GET ONE
         SPACE
         CLC   LAST(8),BLANKS      1ST RECORD ?
         BNE   OHREALLY
         MVC   LAST(8),MODULE  *** HOW ABOUT INITIALISING 'LAST' MIKE ?
         B     HDG
OHREALLY DS    0H
         CLC   LAST(8),MODULE      NO - SAME MODULE ?
         BNE   EOM                 NO - WRITE TOTALS FOR PREVIOUS ONE
TEST     CLI   RECID,6             YES - ISSUED BY SVC 6 ?
         BE    SVC6                YES
         CLI   RECID,7             NO - ISSUED BY SVC 7 ?
         BE    SVC7                YES
         CLI   RECID,8             NO - ISSUED BY SVC 8 ?
         BE    SVC8                YES
         CLI   RECID,18            BLDL
         BE    SVC18             * YES
         INCR  NOT678              COUNT OF RECORDS NOT SVC 6,7,8
         B     LOOP                ANOTHER RECORD
         SPACE 2
SVC6     INCR  SVC6CT              THIS MODULE VIA SVC 6
         INCR  THISMOD             THIS MODULE
         INCR  TOT678              TOTAL MODULES
         INCR  TOT6                TOTAL SVC 6
         B     LOOP                ANOTHER RECORD
         SPACE 2
SVC7     INCR  SVC7CT              THIS MODULE VIA SVC 7
         INCR  THISMOD             THIS MODULE
         INCR  TOT678
         INCR  TOT7
         B     LOOP
         SPACE 2
SVC8     INCR  SVC8CT              THIS MODULE VIA SVC 8
         INCR  THISMOD             THIS MODULE
         INCR  TOT678              TOTAL MODULES
         INCR  TOT8                TOTAL SVC 8
         B     LOOP                ANOTHER RECORD
SVC18    INCR  SVC18CT             COUNT OF SVC 18 FOR THIS MODULE
         INCR  THISMOD             TOTAL FOR THIS MODULE
         INCR  TOT678              TOTAL SUCS 6+7+8+18
         INCR  TOT18               TOTAL SVC 18
         B     LOOP                ANOTHER RECORD
         EJECT
EOM      DS    0H
         MVC   MNM(8),LAST         MODULE NAME TO PRINTLINE
         SUMMY SVC6CT,TOTSVC6      CALLS VIA SVC 6
         SUMMY SVC7CT,TOTSVC7      CALLS VIA SVC 7
         SUMMY SVC8CT,TOTSVC8      CALLS VIA SVC 8
         SUMMY SVC18CT,TOTSVC18    SVC 18 TOTAL FOR THIS MODULE
         SUMMY THISMOD,TOTALMOD    TOTAL CALLS FOR THIS MODULE
         PUT   SYSPRINT,LINE
         INCR  LINECT              UP THE LINE COUNT
         CLEAR SVC6CT              COUNT SET TO ZERO
         CLEAR SVC7CT              COUNT SET TO ZERO
         CLEAR SVC8CT              COUNT SET TO ZERO
         CLEAR SVC18CT             SET TO ZERO
         CLEAR THISMOD                  *** DONT FORGET THIS ONE MIKE
         MVC   LAST(8),MODULE      TRANSFER NEW NAME TO BUFFER
         CLC   LINECT(4),=F'50'    END OF PAGE ?
         BE    NEWPAGE             YES
         B     TEST                NO - TEST THIS RECORD FOR SVC 6,7,8
         EJECT
NEWPAGE  DS    0H
         CLEAR LINECT              LINE COUNT TO ZERO
HDG      DS    0H
         BAL   R3,PRT              WRITE HEADINGS
         B     TEST                TEST THIS RECORD
         SPACE 2
PRT      DS         0H
         PUT   SYSPRINT,HD1        HEADING 1
         PUT   SYSPRINT,HD2        HEADING 2
         BR    R3                  RETURN
         SPACE 3
END      DS    0H
         MVC   MNM(8),LAST         LAST MODULE NAME
         SUMMY SVC6CT,TOTSVC6      CALLS VIA SVC 6
         SUMMY SVC7CT,TOTSVC7      CALLS VIA SVC 7
         SUMMY SVC8CT,TOTSVC8      CALLS VIA SVC 8
         SUMMY SVC18CT,TOTSVC18    TOTAL SVC 18 FOR THIS MODULE
         SUMMY THISMOD,TOTALMOD    TOTAL INVOCATIONS FOR THIS MODULE
         PUT   SYSPRINT,LINE       WRITE OUT LAST RECORD
         SUMMY TOT6,TOT6A          COUNT OF SVC 6
         SUMMY TOT7,TOT7A          COUNT OF SVC 7
         SUMMY TOT8,TOT8A          COUNT OF SVC 8
         SUMMY TOT18,TOT18A        TOTAL SVC 18 OVERALL
         PUT   SYSPRINT,TOTLINE
         SPACE
         SUMMY TOT678,ALLMODS      TOTAL SVC 6+7+8
         SUMMY NOT678,OTHERS       SVCS NOT 6,7,8
         PUT   SYSPRINT,TAIL       TRAILER LINE
         CLOSE (SYSUT1,,SYSPRINT)  SHUT UP
         L     R13,4(0,R13)        OLD SAVE AREA
         LM    R14,R12,12(R13)     RESTORE REGISTERS
         LA    R15,0               RETURN CODE
         BR    R14                 BACK TO O.S.
         EJECT
***            CONSTANTS ETC                                        ***
         SPACE 2
         PRINT NOGEN
SYSUT1   DCB   DDNAME=SYSUT1,DSORG=PS,MACRF=GM,EODAD=END
SYSPRINT DCB   DDNAME=SYSPRINT,DSORG=PS,MACRF=PM,BLKSIZE=1210,LRECL=121*
               ,RECFM=FBA
DWORK    DS    D
NOT678   DC    A(0)                COUNT OF RECORDS NOT 6,7,8,18
TOT678   DC    A(0)                COUNT OF RECORDS 6+7+8+18
SVC6CT   DC    A(0)                TOTAL RECORDS SVC 6
SVC7CT   DC    A(0)                TOTAL RECORDS SVC 7
SVC8CT   DC    A(0)                TOTAL RECORDS SVC 8
SVC18CT  DC    A(0)                TOTAL RECORDS SVC 18
TOT6     DC    A(0)                   COUNT OF SVC 6
TOT7     DC    A(0)                   COUNT OF SVC 7
TOT8     DC    A(0)                   COUNT OF SVC 8
TOT18    DC    A(0)                COUNT OF SVC 18
THISMOD  DC    A(0)                TOTAL SVC 6+7+8 FOR A GIVEN MODULE
LINECT   DC    A(0)                LINE COUNT
LAST     DC    8C' '               OLD MODULE SAVED HERE
BLANKS   DC    8C' '               COMPARAND FOR FIRST TIME THROUGH
MASK2    DC    X'40',7X'20',X'2120' * EDIT PATTERN                    *
AREA     DS    CL50                RECORD IS READ IN HERE
*
HD1      DC    C'1',6C' ',C' MODULE LOADING SUMMARY  ',90C' '
HD2      DC    C'-',8C' ',C'MODULE NAME',10C' ',C'SVC  6',9C' '
         DC    C'SVC  7',9C' ',C'SVC  8',9C' ',C'SVC 18',10C' '
         DC    C'TOTAL',40C' '
*
LINE     DC    C' ',9C' '
MNM      DS    CL8                 MODULE NAME
         DC    8C' '
TOTSVC6  DS    CL10              * CALLS VIA SVC 6                    *
         DC    5C' '
TOTSVC7  DS    CL10              * CALLS VIA SVC 7                    *
         DC    5C' '
TOTSVC8  DS    CL10              * CALLS VIA SVC 8
         DC    5C' '
TOTSVC18 DS    CL10              * CALLS VIA SVC 18                   *
         DC    5C' '
TOTALMOD DS    CL10              TOTAL CALLS FOR THIS MODULE          *
         DC    44C' '
TOTLINE  DC    C'-',17C' ',C'TOTALS  '
TOT6A    DS    CL10                COUNT OF SVC 6
         DC    5C' '
TOT7A    DS    CL10
         DC    5C' '
TOT8A    DS    CL10
         DC    5C' '
TOT18A   DS    CL10
         DC    55C' '
TAIL     DC    C'-',8C' ',C'TOTAL SVCS 6+7+8+18 = '
ALLMODS  DS    CL10              * ALL SVC CALLS 6+7+8+18             *
         DC    4C' ',C'TOTAL OTHERS = '
OTHERS   DS    CL10              * ALL OTHERS                         *
         DC    56C' '
REC      DSECT
RECID    DS    CL1                 ID OF RECORD (= INVOKING SVC #)
MODULE   DS    CL8                 MODULE CALLED
FILLER   DS    CL21
         END
