         MACRO
&NAME    LEAVE &RC,&REG=(14,12)
         GBLA  &#SA,&#SP
         GBLB  &#RENT
         LCLA  &R
         AIF   ('&NAME' EQ '').GO
&NAME    DS    0H
.GO      AIF   (&#RENT).RTYPE
         AIF   (&#SA LT 8).RCCHK
         L     13,4(0,13)          LOAD HSA ADDRESS
.RCCHK   AIF   (T'&RC EQ 'O').RET
         AIF   ('&RC'(1,1) EQ '(').SPEC
&R       SETA  &RC
.RET     RETURN &REG,RC=&R
         MEXIT
.SPEC    RETURN &REG,RC=&RC
         MEXIT
.RTYPE   AIF   (&#SA EQ 0).RCCHK
         LR    1,13                SAVE AREA ADDRESS
         L     13,4(0,13)          LOAD HSA ADDRESS
         FREEMAIN R,LV=&#SA,SP=&#SP,A=(1)
         AGO   .RCCHK
         MEND
