         MACRO
&NAME    LOAD
&NAME    DS    0H
         MNOTE 0,'LOAD VARIES UNDER O.S.'
         SPACE 2
*        LOAD EXISTS UNDER O.S. BUT WITH THE FOLLOWING CHANGES -
*                   1.  ENTRY ADDRESS RETURNED IN R0 RATHER THAN R1.
*                   2.  YOU CANNOT SUPPLY AN OVERRIDING 'LOADADDR'.
*                   3.  USE THE 'DELETE' MACRO TO FREE SPACE CONSUMED
*                       BY A LOADED MODULE.
*                   4.  MACROS SEGLD AND SEGWT MAY ALSO BE USED.
         SPACE 2
         MEND
