         MACRO                                                          001
&NAME    LPYR  &INPUT,&NOLPYR                                           002
         AIF   ('&INPUT' NE ' ').NO                                     003
         MNOTE 'FIRST PARAMETER OMITTED'                                004
         AGO   .N1                                                      005
.NO      AIF   ('&NOLPYR' NE ' ').N2                                    006
         MNOTE 'SECOND PARAMETER OMITTED'                               007
.N1      MNOTE 'GENERATION TERMINATED'                                  008
         MEXIT                                                          009
.N2      ANOP                                                           010
&NAME    TM    &INPUT,X'01'                                             011
         BO    &NOLPYR                                                  012
         TM    &INPUT,X'12'                                             013
         BM    &NOLPYR                                                  014
         MEND                                                           015
