         MACRO
&NAME    MIPCARD &DSECT,&TYPE=NEW
         AIF   ('&DSECT' EQ 'DSECT').DSECT
         DS    0F
&NAME    DS    0CL80               PUNCH CARD IMAGE
         AGO   .CARD
.DSECT   ANOP
&NAME    DSECT                     PUNCH CARD IMAGE
.CARD    AIF   ('&TYPE' EQ 'OLD').OLD
         SPACE
*              VOLUME CARD
PUNVSN   DS    CL6                 VOLUME SERIAL NUMBER
PUNDATE  DS    CL8                 DATE OF RUN
PUNDESC  DS    CL15                VOLUME DESCRIPTION
PUNDEVC  DS    CL8                 DEVICE CODE
PUNOWNID DS    CL10                OWNER ID
         DS    CL32
PUNCTYPE DS    CL1                 INDICATOR = 1 FOR VOLUME
         SPACE
*              DATA SET CARD
         SPACE
         ORG   PUNDESC             BEFORE THIS SAME AS VOLUME CARD
PUNDSN   DS    CL44                DATA SET NAME
PUNTYPE  DS    CL1                 LIBRARY TYPE
PUNCREDT DS    CL5                 CREATION DATE
PUNEXPDT DS    CL5                 EXPIRY DATE
         SPACE
*              MEMBER CARD
         SPACE
         ORG   PUNCREDT            BEFORE THIS SAME AS DATA SET CARD
PUNMEM   DS    CL8                 MEMBER NAME
PUNALIAS DS    CL1                 ALIAS
PUNSSI   DS    CL8                 SSI
         ORG   PUNCARD+80
         SPACE
         MEXIT
.OLD     ANOP
         SPACE
PUNMEM   DS    CL8                 MEMBER NAME
PUNALIAS DS    CL1                 ALIAS
PUNTYPE  DS    CL1                 LIBRARY TYPE
PUNVSN   DS    CL6                 VOLUME SERIAL
PUNDATE  DS    CL8                 DATE OF RUN
PUNDSN   DS    CL44                DATA SET NAME
PUNSSI   DS    CL8                 SSI
         DS    CL3                 RESERVED
PUNCTYPE DS    CL1                 INDICATOR FOR CARD TYPE
         SPACE
         MEND
