         MACRO
&NAME    MIPDSEXT
         SPACE
*              OVERLAY MASK FOR EXTENT BLOCK
&NAME    DSECT
         SPACE
DSEXT1   DS    CL28
         SPACE
         ORG   DSEXT1
EXTANEXT DC    A(0)                ADDRESS OF NEXT SEQUENTIAL EXTENT
EXTSCCHH DC    F'0'                STARTING CCHH
EXTECCHH DC    F'0'                ENDING CCHH
EXTNOTRK DC    H'0'                NUMBER OF TRACKS IN EXTENT
EXTSEQ   EQU   *                   EXTENT SEQUENCE NUMBER
EXTTYPND DC    X'0'                OR   EXTENT TYPE INDICATOR
         DC    X'00'               RESERVED
EXTADSN  DC    A(0)                ADDRESS OF DATA SET NAME
EXTSABS  DC    H'0'                STARTING ABSTRAK
EXTEABS  DC    H'0'                ENDING ABSTRAK
EXTDNEXT DC    A(0)                ADDRESS OF NEXT EXTENT FOR DATA SET
         MEND
