         MACRO
&NAME    MIPF1 &ORG
&NAME    F1DSCB &ORG
         SPACE
*              END OF FORMAT 1 DSCB
         SPACE
DS1FDAD  DS    CL8                 FULL D-A ADDRESS OF DSCB
DS1AF3   DS    A                   ADDRESS OF FORMAT 3 DSCB
DS1ANEXT DS    A                   ADDRESS OF NEXT FORMAT 1 DSCB
DS1AEXT  DS    A                   ADDRESS OF FIRST EXTENT BLOCK
         MEND
