         MACRO
&NAME    MIPPCWA &DSECT
         SPACE
         AIF   ('&DSECT' EQ 'DSECT').DSECT
         DS    0F
&NAME    EQU   *                   PROGRAM CONTROL WORK AREA
         AGO   .CONT
.DSECT   ANOP
&NAME    DSECT                     PROGRAM CONTROL WORK AREA
.CONT    ANOP
         SPACE
VOLSER#  DC    CL6' '              CURRENT VOLUME BEING LISTED
VOLCT    DC    H'0'                NUMBER OF VOLUMES TO BE LISTED
AF1DSCB  DC    A(0)                ADDRESS OF FORMAT 1 DSCB
AF3DSCB  DC    A(0)                ADDRESS OF FORMAT 3 DSCB
AF4DSCB  DC    A(0)                ADDRESS OF FORMAT 4 DSCB
AF5DSCB  DC    A(0)                ADDRESS OF FORMAT 5 DSCB
OPBYTE1  EQU   *                   FLAG BYTE
SETBLANK EQU   X'80'               START SPACES AT TOP OF PAGE
*        EQU   X'40'
*        EQU   X'20'
*        EQU   X'10'
*        EQU   X'08'
*        EQU   X'04'
*        EQU   X'02'
*        EQU   X'01'
         DC    A(0)
OPBYTE2  EQU   *                   OPTION BYTE
OPTIONS  EQU   *                   OPTION BYTE
OPDUMP   EQU   X'01'               DUMP OPTION
OPPDS    EQU   X'02'               PDS LISTING REQUIRED
OPCATLG  EQU   X'04'               CATALOG FLAGGING REQUIRED
OPPUNCH  EQU   X'08'               PUNCHED OUTPUT REQUIRED
OPEXT    EQU   X'10'               DATA SET EXTENTS REQUIRED
FULLPDS  EQU   X'20'               FULL PDS LISTING REQUIRED
OPTERM   EQU   X'40'               TERMINAL OUTPUT REQUIRED
OPUSAGE  EQU   X'80'                    DISC USAGE REQUIRED
         DC    A(0)                RESERVED
         AIF   ('&DSECT' EQ 'DSECT').DSECT2
APUNCARD DC    A(PUNCARD)          ADDRESS OF PUNCH CARD IMAGE
APRLINE  DC    A(PRSTART)          ADDRESS OF PRINT LINE
ATOPLINE DC    A(AHEADING)         ADDRESS OF FIRST HEADING
AJFCB    DC    X'87'               INDICATE JFCB
         DC    AL3(JFCB)           ADDRESS OF JFCB
VOLUMEXX DC    CL6'VOLUME'         CURRENT DDNAME
DDVOLNO  DC    CL2'00'             INCLUDING DD VOLUME NUMBER
PERCENT  DC    H'80'                    DEFAULT %AGE FILLED VALUE
         AGO   .OPT
.DSECT2  ANOP
APUNCARD DS    A                   ADDRESS OF PUNCH CARD IMAGE
APRLINE  DS    A                   ADDRESS OF PRINT LINE
ATOPLINE DS    A                   ADDRESS OF FIRST HEADING
AJFCB    DS    A                   ADDRESS OF JFCB
VOLUMEXX DS    CL8                 CURRENT DD NAME
PERCENT  DS    H                        %AGE FILLED VALUE
.OPT     ANOP
         MEND
