         MACRO
&NAME    MODOUT &R1,&R2,&R3,&R4,&R5,&R6
         LCLA  &A,&B
&NAME    L     R13,4(R13)
         AIF   (K'&R6 EQ 0).M01
         MNOTE 1,'NO MORE THAN 5 REGS CAN BE SPECIFIED- REST IGNORED'
.M01     AIF   (K'&R1 EQ 0).M09
&A       SETA  &R1
         AIF   (&A GT 12).ERROR
&B       SETA  &A*4+20
         ST    &A,&B.(R13)
         AIF   (K'&R2 EQ 0).M09
&A       SETA  &R2
         AIF   (&A GT 12).ERROR
&B       SETA  &A*4+20
         ST    &A,&B.(R13)
         AIF   (K'&R3 EQ 0).M09
&A       SETA  &R3
         AIF   (&A GT 12).ERROR
&B       SETA  &A*4+20
         ST    &A,&B.(R13)
         AIF   (K'&R4 EQ 0).M09
&A       SETA  &R4
         AIF   (&A GT 12).ERROR
&B       SETA  &A*4+20
         ST    &A,&B.(R13)
         AIF   (K'&R5 EQ 0).M09
&A       SETA  &R5
         AIF   (&A GT 12).ERROR
&B       SETA  &A*4+20
         ST    &A,&B.(R13)
         AGO   .M09
.ERROR   MNOTE 1,'REGS 13,14 AND 15 CANNOT BE CHANGED- MACRO IGNORED'
         MEXIT
.M09     RETURN (14,12)
         MEND
