         MACRO
&NAME    MOVE  &T,&F,&LV
         LCLA  &L,&I
         AIF   (T'&T EQ 'O').ERR1
         AIF   (T'&F EQ 'O').ERR1
         AIF   (T'&LV EQ 'O').A
         AIF   ('&LV'(1,1) EQ '(').MVCL
&L       SETA  &LV
         AGO   .B
.A       ANOP
&L       SETA  L'&T
.B       AIF   (&L GT 512).MVCL
         AIF   (&L GT 256).MULTI
         AIF   ('&T'(1,1) EQ '(' AND '&F'(1,1) EQ '(').RRMVC
         AIF   ('&T'(1,1) EQ '(' AND '&F'(1,1) NE '(').R1MVC
         AIF   ('&T'(1,1) NE '(' AND '&F'(1,1) EQ '(').R2MVC
&NAME    MVC   &T.(&L),&F
         MEXIT
.RRMVC   ANOP
&NAME    MVC   0(&L,&T(1)),0&F
         MEXIT
.R1MVC   ANOP
&NAME    MVC   0(&L,&T(1)),&F
         MEXIT
.R2MVC   ANOP
&NAME    MVC   &T.(&L),0&F
         MEXIT
.MULTI   AIF   ('&T'(1,1) EQ '(' AND '&F'(1,1) EQ '(').RRMULTI
         AIF   ('&T'(1,1) EQ '(' AND '&F'(1,1) NE '(').R1MULTI
         AIF   ('&T'(1,1) NE '(' AND '&F'(1,1) EQ '(').R2MULTI
&NAME    MVC   &T.(256),&F
&L       SETA  &L-256
         MVC   &T+256(&L),&F+256
         MEXIT
.RRMULTI ANOP
&NAME    MVC   0(256,&T(1)),0&F
&L       SETA  &L-256
         MVC   256(&L,&T(1)),256&F
         MEXIT
.R1MULTI ANOP
&NAME    MVC   0(256,&T(1)),&F
&L       SETA  &L-256
         MVC   256(&L,&T(1)),&F+256
         MEXIT
.R2MULTI ANOP
&NAME    MVC   &T.(256),0&F
&L       SETA  &L-256
         MVC   &T+256(&L),256&F
         MEXIT
.MVCL    ANOP
&NAME    STM   14,1,12(13)
         AIF   ('&T' EQ '(0)').F
         AIF   ('&T'(1,1) EQ '(').R1
         LA    0,&T
         AGO   .F
.R1      LR    0,&T(1)
.F       AIF   ('&F' EQ '(14)').LEN
         AIF   ('&F'(1,1) EQ '(').R2
         LA    14,&F
         AGO   .LEN
.R2      LR    14,&F(1)
.LEN     AIF   (T'&LV EQ 'O').X1
         AIF   ('&LV' EQ '(1)').L1
         AIF   ('&LV' EQ '(15)').L2
         AIF   ('&LV'(1,1) EQ '(').R3
.X1      AIF   (&L GT 4096).DAMN
         LA    1,&L
         AGO   .L1
.DAMN    L     1,=F'&L'
         LA    1,0(0,1)
.L1      LR    15,1
         AGO   .MOOV
.L2      LR    1,15
         AGO   .MOOV
.R3      LR    1,&LV(1)
         AGO   .L1
.MOOV    MVCL  0,14
         LM    14,1,12(13)
         MEXIT
.ERR1    MNOTE 8,'REQUIRED PARAMETER(S) MISSING'
         MEND
