         MACRO
&NAME    MSG
&NAME    DS    0H
         MNOTE 0,'MSG & MSGMN NOT SUPPORTED BY O.S.'
         SPACE 2
*        FOR CONSOLE I/O USE O.S. MACROS 'WTO' & 'WTOR'.
         SPACE 2
         MEND
