         MACRO
&NAME    MSGMN
&NAME    MSG
         MEND
