         MACRO
&NAME    MVCOM
         MNOTE 0,'MVCOM NOT SUPPORTED BY O.S.'
&NAME    COMRG
         MEND
