         MACRO
&NAME    OPENR
&NAME    DS    0H
         SPACE
         MNOTE 0,'OPENR  MACRO NOT SUPPORTED BY O.S.'
         SPACE
         MEND
