         MACRO
&NAME    OPEN
&NAME    DS    0H
         SPACE
         MNOTE 0,'OPEN  MACRO FORMAT VARIES UNDER O.S.'
         SPACE
         MEND
