         MACRO
&NAME    PROGIN &ID=YES
.*
.**      MACRO PROGIN    VERSION 1.0
.**      -----------
.**                      PROVIDE ADDRESSABILITY,SAVEAREA CHAINING,
.**                      LINKAGE, SAVEAREA, AND IDENTIFICATION.
.**
.*
         LCLA  &LA01
         LCLC  &LC01
         AIF   ('&ID' EQ 'NO').MB05
&LA01    SETA  8                   LENGTH OF IDENTIFICATION
         AIF   ('&ID' EQ 'YES').MB03
&LC01    SETC  '&ID'
         AGO   .MB05
.MB03    ANOP
&LC01    SETC  '&SYSECT'
.MB05    ANOP
.*
         ENTRY SAVEAREA
&NAME    DS    0H
         USING *,R15
         CNOP  2,4                 ALIGN SAVEAREA
         STM   R14,R12,12(R13)     SAVE REGISTERS
         ST    R13,SAVEAREA+4      BACK CHAIN SAVEAREAS
         LR    R14,R13             SAVE POINTER TO SAVEAREA
         BAL   R13,&LA01+*+76      POINT R13 TO SAVEAREA
SAVEAREA DC    18A(0)              SAVEAREA
         AIF   (&LA01 NE 8).MB20   SKIP IDENTIFICATION
         DC    CL8'&LC01'          IDENTIFY MODULE
.MB20    DROP  R15                 DROP INITIAL BASE REGISTER
         USING SAVEAREA,R13        ADDRESSABILIY FOR MODULE VIA R13
         ST    R13,8(R14)          FORWARD CHAIN SAVEAREAS
         MEND
