         MACRO
&NAME    PUT
&NAME    DS    0H
         SPACE
         MNOTE 0,'PUT   MACRO FORMAT VARIES UNDER O.S.'
         SPACE
         MEND
