         MACRO
&NAME    READ
&NAME    DS    0H
         SPACE
         MNOTE 0,'READ  MACRO FORMAT VARIES UNDER O.S.'
         SPACE
         MEND
