         MACRO
&NAME    PRUNT  &FLD,&TARG
&NAME    LH    R1,&FLD
         CVD   R1,DWORK
         OI    DWORK+7,15
         UNPK  &TARG.(3),DWORK+6(2)
         SPACE
         MEND
         EJECT
REPORT   BEGIN
         EJECT
***      ROUTINE TO PRINT HEAD MOVEMENT AND FREQUENCY               ***
***      DRIVEN BY CONTROL CARD ON SYSIN                            ***
***      FORMAT :-                                                  ***
***            COL 1   'A'    HEAD MOVEMENT REPORT                  ***
***                   ANY OTHER    FREQUENCY REPORT                 ***
***                    LETTER                                       ***
***            COLS 2-7       MINIMUM VALUE ACCEPTED FOR            ***
***                           THE REPORT TO BE MADE                 ***
***                                                                 ***
***            E.G.  A000100  WILL REPORT ON ANY HEAD MOVEMENT      ***
***                           OF 100 CYLS OR GREATER                ***
***                                                                 ***
***            AND   X000050  WILL REPORT ON ANY HEAD MOVEMENTS     ***
***                           THAT OCCURRED 50 OR MORE TIMES        ***
         SPACE 4
         OPEN  (SYSIN,,SYSUT1,,SYSPRINT,(OUTPUT))
         SPACE
         GET   SYSIN,DATA
         SPACE
         LA    R11,AREA            R11 -> DATA FROM SYSUT1
         USING RCD,R11
         GET   SYSUT1,AREA
         MVC   LAST(4),UCB         MOVE IN UCB
         MVC   DRIVE(3),UCB+1      MOVE IN HEADER
         CLI   DATA,C'A'          'A'TYPE REPORT ?  - HEAD MOVEMENT ?
         BE    HMVMT               YES
         BAL   R8,FREQHDG          NO - ASSUME FREQUENCY
         PACK  DWORK(8),DATA+1(6)  MINIMUM FREQUENCY FROM CARD
         MVC   COMP(4),DWORK+4     MOVE IN COMPARAND
         B     MISGET1
LOOP1    DS    0H
         GET   SYSUT1,AREA         RECORD FROM SYSUT1
         SPACE
         CLC   LAST(4),UCB          SAME UCB AS BEFORE
         BE    SAME1
         XC    LINECT(2),LINECT         CLEAR LINE COUNT
         MVC   LAST(4),UCB
         MVC   DRIVE(3),UCB+1      RE- INITIALISE HEADING
         BAL   R8,FREQHDG
SAME1    DS    0H
MISGET1  DS    0H
         CP    #TIMES(4),COMP      HAS IT MOVED ENOUGH TIMES ?
         BL    LOOP1               NO - NEXT RECORD
         LA    R8,LOOP1            YES - SET UP R8
WRITE    DS    0H
         PRUNT CC1,CC1LINE
         PRUNT CC2,CC2LINE
         PRUNT #CYLS,CYLSLINE
         MVC   TIMELINE(8),PATTERN PATTERN TO PRINTLINE
         ED    TIMELINE(8),#TIMES  PRINT # OF MOVEMENTS
         SPACE
         PUT   SYSPRINT,LINE
         SPACE
         LH    R1,LINECT           INCREMENT
         LA    R1,1(0,R1)           LINE
         STH   R1,LINECT             COUNT
         CH    R1,=H'50'           TIME FOR NEW PAGE ?
         BNE   NOHDG               NO
         SPACE
         PUT   SYSPRINT,HD1
         SPACE
         PUT   SYSPRINT,HD2
         SPACE
         XC    LINECT(2),LINECT    CLEAR LINE COUNT
NOHDG    DS    0H
         BR    R8
         EJECT
HMVMT    DS    0H
         BAL   R8,MVMTHDG          WRITE HEADINGS
         PACK  DWORK(8),DATA+1(6)  PACK MINIMUM VALUE
         CVB   R10,DWORK
         B     MISGET2
LOOP2    DS    0H
         GET   SYSUT1,AREA
         SPACE
         CLC   LAST(4),UCB          SAME UCB AS BEFORE
         BE    SAME2
         XC    LINECT(2),LINECT         CLEAR LINE COUNT
         MVC   LAST(4),UCB
         MVC   DRIVE(3),UCB+1      RE- INITIALISE HEADING
         BAL   R8,MVMTHDG          NEW HEADING PLEASE
SAME2    DS    0H
MISGET2  DS    0H
         CH    R10,#CYLS           DID IT MOVE FAR ENOUGH ?
         BH    LOOP2               NO
         LA    R8,LOOP2            YES - SET UP R8 FOR RETURN
         B     WRITE               WRITE RECORD
         SPACE
FREQHDG  DS    0H
         MVC   HD1TYPE(9),=C'FREQUENCY' SET UP TITLE
         MVC   HD1NUM(6),DATA+1    MINIMUM VALUE FROM SYSIN
         SPACE
HDRITE   PUT   SYSPRINT,HD1
         SPACE
         PUT   SYSPRINT,HD2
         SPACE
         BR    R8
         SPACE 3
MVMTHDG  DS    0H
         MVC   HD1TYPE(9),=C'MOVEMENT '  SET UP TITLE
         MVC   HD1NUM(6),DATA+1    MINIMUM VALUE
         B     HDRITE              WRITE HEADINGS
         EJECT
END      DS    0H
         CLOSE (SYSPRINT,,SYSUT1,,SYSIN)
         SPACE
         L     R13,4(0,R13)        R13 -> OLD SAVE AREA
         LM    R14,R12,12(R13)     RESTORE REGISTERS
         LA    R15,0               RETURN CODE
         BR    R14                 BACK TO O.S.
         SPACE 4
***                 CONSTANTS ETC                                   ***
         SPACE
        PRINT NOGEN
DWORK    DS    D                   UBIQUITOUS DOUBLEWORD
DATA     DS    CL80                DATA IN HERE
COMP     DS    CL4                 COMPARAND FOR FREQUENCY
PATTERN  DC    X'4020202020202120' PATTERN FOR PRINTLINE
LINECT   DC    H'0'                LINE COUNT
AREA     DS    CL10                RECORDS READ IN HERE
UCB      DS    CL4
HD1      DC    C'1          DISK MOVEMENT REPORT  -  MINIMUM '
HD1TYPE  DS    CL9
         DC    C' REPORTED = '
HD1NUM   DS    CL6
         DC    10C' '
DRIVE    EQU   HD1+3
HD2      DC    C'-          FROM CYL    TO CYL    # CYLS MOVED'
         DC    C'    # OF TIMES                      '
LINE     DC    C'              '
CC1LINE  DS    CL3
         DC    C'       '
CC2LINE  DS    CL3
         DC    C'           '
CYLSLINE DS    CL3
         DC    9C' '
TIMELINE DS    CL8
         DC    23C' '
LAST    DC    4C' '
SYSUT1   DCB   DDNAME=SYSUT1,MACRF=GM,DSORG=PS,EODAD=END
SYSIN    DCB   DDNAME=SYSIN,MACRF=GM,DSORG=PS,LRECL=80,RECFM=F,        *
               BLKSIZE=80
SYSPRINT DCB   DDNAME=SYSPRINT,MACRF=PM,DSORG=PS,LRECL=081,BLKSIZE=1620*
               ,RECFM=FBA
RCD      DSECT
CC1      DS    CL2                 TO CYL
CC2      DS    CL2                 FROM CYL
#CYLS    DS    CL2                 # CYLS TRAVERSED
#TIMES   DS    CL4                 # OF TIMES THIS OCCURRED
         END
