         MACRO
&NAME    SETFL
&NAME    DS    0H
         SPACE
         MNOTE 0,'SETFL  MACRO NOT SUPPORTED BY O.S.'
         SPACE
         MEND
