         MACRO
&NAME    SETIME
&NAME    DS    0H
         MNOTE 0,'SETIME NOT SUPPORTED BY O.S.'
         SPACE 2
*        FOR SETIME WITH OR WITHOUT A TECB, SPECIFY O.S. MACRO
*                       'STIMER'.  NOTE THAT A WAIT IS INBUILT INTO
*                       THIS MACRO EXPANSION IN THE CASE OF A TECB.
         SPACE 2
         MEND
