         MACRO
&NAME    SETL
&NAME    DS    0H
         SPACE
         MNOTE 0,'SETL  MACRO FORMAT VARIES UNDER O.S.'
         SPACE
         MEND
