         MACRO
&NAME    SMFGET &REC=(4),&DUP=LOSE,&TYPE=JOB,&DATES=,                  X
               &FIELDS=(31,4,PD,A,27,4,BI,A,19,8,CH,A,6,1,BI,A,43,1,BI,X
               A)
         GBLB  &SWSMF
         LCLA  &R(50),&B,&C
&C       SETA  N'&REC
&B       SETA  1
.R       ANOP
&R(&B)   SETA  &REC(&B)
&B       SETA  &B+1
         AIF   (&B GT &C).Q
         AGO   .R
.Q       ANOP
&NAME    LINK  EP=SORT,PARAM=P&SYSNDX,VL=1
         PUSH  USING
         AIF   (&SWSMF).SECOND
E15EXIT  CSECT
         USING *,15
         SAVE  (14,12),,*
         LR    14,13
         LR    11,1
         BAL   13,*+76
         USING *,13
         DROP  15
         DS    18F
         ST    14,4(13)
         ST    13,8(14)
E15SW    NOP   GET&SYSNDX
         OPEN  (IN&SYSNDX)
         OI    E15SW+1,X'F0'
&B       SETA  1
         AIF   (T'&DATES EQ 'O').GETIT
         L     2,=V(&DATES)
         PACK  F&SYSNDX.(4),0(5,2)
         PACK  L&SYSNDX.(4),5(5,2)
         OI    F&SYSNDX+3,X'0F'
         OI    L&SYSNDX+3,X'0F'
.GETIT   ANOP
GET&SYSNDX  GET   IN&SYSNDX
         AIF   (T'&DATES EQ 'O').B
         CLC   30(4,1),F&SYSNDX
         BL    GET&SYSNDX
         CLC   30(4,1),L&SYSNDX
         BH    GET&SYSNDX
.B       AIF   (&B GT &C).FIN
         CLI   5(1),X'&R(&B)'
         BE    GOT&SYSNDX
&B       SETA  &B+1
         AGO   .B
.FIN     ANOP
         B     GET&SYSNDX
GOT&SYSNDX  L     13,4(13)
         LM    2,12,28(13)
         LM    14,0,12(13)
         LA    15,12
         BR    14
E15EOF   L     13,4(13)
         RETURN (14,12),RC=8
         LTORG
IN&SYSNDX   DCB   DDNAME=SORTIN,DSORG=PS,MACRF=(GL),RECFM=VBS,         X
               EODAD=E15EOF,BFTEK=A
         AIF   (T'&DATES EQ 'O').NODC
F&SYSNDX DC    PL4'0'
L&SYSNDX DC    PL4'0'
.NODC    AIF   ('&DUP' EQ 'KEEP').SECOND
E35EXIT  CSECT
         USING *,15
         SAVE  (14,12),,*
         LR    14,13
         LR    11,1
         BAL   13,*+76
         USING *,13
         DROP  15
         DS    18F
         ST    14,4(13)
         ST    13,8(14)
         CLC   0(4,11),=F'0'
         BE    FIN&SYSNDX
E35SW    NOP   G&SYSNDX
         OPEN  (OUT&SYSNDX,(OUTPUT))
         OI    E35SW+1,X'F0'
G&SYSNDX L     2,0(11)
         CLI   FLG&SYSNDX,X'00'
         BE    C&SYSNDX
         CLC   BUF&SYSNDX.(16),0(2)
         BE    RET&SYSNDX
         PUT   OUT&SYSNDX,BUF&SYSNDX
C&SYSNDX TM    0(2),X'FF'
         MVI   FLG&SYSNDX,X'FF'
         BNZ   M&SYSNDX
         IC    3,1(2)
S&SYSNDX STC   3,*+5
         MVC   BUF&SYSNDX.(0),0(2)
RET&SYSNDX L   13,4(13)
         RETURN (14,12),RC=4
FIN&SYSNDX PUT OUT&SYSNDX,BUF&SYSNDX
         CLOSE (OUT&SYSNDX)
         L     13,4(13)
         RETURN (14,12),RC=8
M&SYSNDX SR    3,3
         ICM   3,B'0011',0(2)
N&SYSNDX MVC   BUF&SYSNDX.(256),0(2)
         SH    3,=H'256'
         LA    2,256(2)
         C     3,=F'256'
         BL    S&SYSNDX
         B     N&SYSNDX
         SAVE  (14,12),,*
         LR    14,13
         LR    11,1
         BAL   13,*+76
         USING *,13
         DROP  15
         DS    18F
         ST    14,4(13)
         ST    13,8(14)
         CLC   0(4,11),=F'0'
         BE    FIN&SYSNDX
E35SW    NOP   G&SYSNDX
         OPEN  (OUT&SYSNDX,(OUTPUT))
         OI    E35SW+1,X'F0'
G&SYSNDX L     2,0(11)
         CLI   FLG&SYSNDX,X'00'
         BE    C&SYSNDX
         CLC   BUF&SYSNDX.(16),0(2)
         BE    RET&SYSNDX
         PUT   OUT&SYSNDX,BUF&SYSNDX
C&SYSNDX TM    0(2),X'FF'
         MVI   FLG&SYSNDX,X'FF'
         BNZ   M&SYSNDX
         IC    3,1(2)
S&SYSNDX STC   3,*+5
         MVC   BUF&SYSNDX.(0),0(2)
RET&SYSNDX L   13,4(13)
         RETURN (14,12),RC=4
FIN&SYSNDX PUT OUT&SYSNDX,BUF&SYSNDX
         CLOSE (OUT&SYSNDX)
         L     13,4(13)
         RETURN (14,12),RC=8
M&SYSNDX SR    3,3
         ICM   3,B'0011',0(2)
N&SYSNDX MVC   BUF&SYSNDX.(256),0(2)
         SH    3,=H'256'
         LA    2,256(2)
         C     3,=F'256'
         BL    S&SYSNDX
         B     N&SYSNDX
         L     1,4(0,1)            OUR TCB ADDRESS
         L     1,12(0,1)           TIOT ADDRESS
         MEND
