         MACRO
&NAME    TECB
&NAME    DS    0H
         MNOTE 0,'TECB NOT SUPPORTED BY O.S.'
         SPACE 2
*        O.S. MACRO 'STIMER' HAS ITS OWN INBUILT WAIT ROUTINE.
         SPACE 2
         MEND
