         MACRO
&NAME    WAIT
&NAME    DS    0H
         MNOTE 0,'WAIT VARIES UNDER O.S#'
         PIOCS
*        IF WAIT IS USED WITH SETIME, NOTE THAT O.S. 'STIMER' HAS AN
*                       INBUILT WAIT ROURINE.
         SPACE 2
         MEND
