         MACRO
&NAME    WAITF
&NAME    DS    0H
         SPACE
         MNOTE 0,'WAITF  MACRO NOT SUPPORTED BY O.S.'
         SPACE
         MEND
