         MACRO
&NAME    WAYOUT &RET
         GBLB  &WAYIN1
         GBLB  &WAYIN4
         LCLC  &RETCOD
.*         ***************      PROGRAM ABSTRACT        ***************
.*
.*         TITLE  - WAYOUT.
.*         AUTHOR - CHRIS THOMSON.
.*                  THIS VERSION FOR OS BY IAIN MACKINTOSH.
.*         DATES  - A. MARCH, 1970.
.*                  B. JANUARY, 1972.
.*
.*         FUNCTION -
.*                  GENERAL EXIT MACRO FOR ASSEMBLER MODULES.
.*                  PROVIDES ADDRESSING COMPATIBILITY FOR WAYIN.
.*
.*         SAMPLE OF USE -
.*                  WAYOUT ,       RETURN CODE OF ZERO ASSUMED
.*                  WAYOUT (R15)   R15 PRE-LOADED BY USER WITH CODE
.*                  WAYOUT 32      RETURN CODE LOADED BY WAYOUT
.*
.*         PARAMETERS USED -
.*                  AS ABOVE TO DENOTE FORM AND/OR VALUE OF RETURN
.*                  CODE TO BE PASSED TO HIGHER LEVEL.  NOTE THAT DOS
.*                  VERSIONS OF WAYOUT NOW NEED TO SPECIFY AN OPERAND
.*                  OR COMMA FOR DEFAULT VALUES.  NOTE ALSO THAT (15)
.*                  AND (R15) ARE BOTH ACCEPTABLE AS REGISTER
.*                  NOTATION.  RETURN CODE VALUES MUST RANGE 1-4095.
.*
.*         ADDITIONAL REMARKS -
.*                  REGISTER EQUATES USED AS STANDARD.
.*                  SAVE AREA AUTOMATICALLY FLAGGED TO SHOW ENTRY.
.*                  LABEL 'SAVEAREA' GENERATED FOR 72-BYTE BUCKET.
.*
.*         ***************      END OF ABSTRACT         ***************
.*
.*
&RETCOD  SETC  '&RET'
*                                WAYOUT GENERAL PURPOSE MACRO    1.0
*                                  STANDARD RETURN FROM A MODULE.
         AIF   (NOT &WAYIN4).ZSRE00
&NAME    LR    R1,R13 .            POINT AT GOTTEN CORE
         L     R13,4(R13) .        RESET SAVE AREA ADDRESS
         MVI   12(R13),X'FF' .     DENOTE SUCCESSFUL RETURN
         LA    R0,72 .               AND LENGTH
         SVC   10 .                FREEMAIN CORE
         AGO   .TESTRET
.ZSRE00  ANOP
&NAME    L     R13,4(R13) .        RESET SAVEAREA ADDRESS
         MVI   12(R13),X'FF' .     DENOTE SUCCESSFUL RETURN
.TESTRET AIF   ('&RET' EQ '(15)' OR '&RET' EQ '(R15)').REGCODE
         AIF   (T'&RET EQ 'O').ZS01
         AIF   (T'&RET NE 'N').ERROR
         AIF   ('&RET' GE '0' AND '&RET' LE '4095').NOCODE
.ERROR   MNOTE 0,'WAYOUT .. INVALID RETURN CODE .. ZERO ASSUMED'
.ZS01    ANOP
&RETCOD  SETC  '0'
.NOCODE  ANOP
         LM    R14,R12,12(R13) .   RE-LOAD REGISTERS
         LA    R15,&RETCOD .            LOAD SUPPLIED RETURN CODE
         AGO   .RETURN
.REGCODE ANOP
         L     R14,12(R0,R13) .    RE-LOAD R14
         LM    R0,R12,20(R13) .    RE-LOAD R0-R12
.RETURN  ANOP
         BR    R14 .               RETURN TO CALLER
         AIF   (&WAYIN1).NOSAVE
*
SAVEAREA DS    9D .                REGISTER BUCKET FOR THIS MODULE
.NOSAVE  MEND
