         MACRO
&NAME    WRITE
&NAME    DS    0H
         SPACE
         MNOTE 0,'WRITE MACRO FORMAT VARIES UNDER O.S.'
         SPACE
         MEND
