//SCOTTZ   JOB 'TSV0001 UMOD',NOTIFY=SCOTT,
//   CLASS=S,MSGCLASS=X,MSGLEVEL=(1,1),
//   USER=SCOTT,PASSWORD=SCOTTY
//*
//*   NAME:    SYS2.USERMODS(SV00001)
//*   PURPOSE: TO INSTALL USERMOD TSV0001 WHICH CORRECTS MACRO ERROR
//*            IN RESETPL.
//*
//*   NOTE(S): DO NOT RENUMBER AS THIS CONTAINS A MACRO UPDATE IN
//*            IEBUPDTE FORMAT.
//*
//*
//*
//RR     EXEC SMPAPP
//SMPCNTL  DD *
  RESTORE S(TSV0001) .
 RESETRC .
  REJECT  S(TSV0001) .
/*
//RECV   EXEC SMPREC
//SMPPTFIN DD *
++USERMOD(TSV0001).
++VER(Z038) FMID(EBT1102) PRE(UZ57310).
++MACUPD(RESETPL).
./ CHANGE NAME=RESETPL
&NAME    RESETPL &DECB,&TYPE,&SPEC
.*  LINE ABOVE UPDATED BY USERMOD SV000001 TO CORRECT ERROR AS
.*  ORIGINAL NAME WAS RESETPOL AND CAUSED ASSEMBLY ERROR IF NOT
.*  CORRECTED.
/*
//SMPCNTL  DD *
  RECEIVE S(TSV0001) .
/*
//APP    EXEC SMP
//SMPCNTL  DD *
  APPLY S(TSV0001)
       BYPASS(ID)
       CHECK .
  APPLY S(TSV0001) .
/*
