.*--------------------------------------------------------------------*
.*  Copyright 2011 by Clemson University Research Foundation          *
.*                                                                    *
.*  Licensed under the Apache License, Version 2.0 (the "License");   *
.*  you may not use this file except in compliance with the License.  *
.*  You may obtain a copy of the License in this library as member    *
.*  $LICENSE, or from                                                 *
.*                                                                    *
.*      http://www.apache.org/licenses/LICENSE-2.0                    *
.*                                                                    *
.*  Unless required by applicable law or agreed to in writing,        *
.*  software distributed under the License is distributed on an "AS   *
.*  IS" BASIS, WITHOUT WARRANTIES OR CONDITIONS OF ANY KIND, either   *
.*  express or implied.  See the License for the specific language    *
.*  governing permissions and limitations under the License.          *
.*--------------------------------------------------------------------*
         MACRO
&NAME    ##AHI  &REG,&OP
.*--------------------------------------------------------------------*
.*
.*  (C) COPYRIGHT 2005.  CLEMSON UNIVERSITY COMPUTER CENTER.
.*
.*  MACRO      ##AHI
.*
.*  TITLE      CLEMSON UNIVERSITY COMPUTER CENTER STRUCTURED
.*             PROGRAMMING MACROS - ##AHI
.*
.*  PURPOSE    INTERNAL MACRO USED TO GENERATE AN ADD HALFWORD
.*             IMMEDIATE BASED ON ARCH LEVEL.
.*
.*  NOTE       SEE THE FOLLOWING DOCUMENT FOR MORE INFORMATION ON
.*             THIS AND OTHER STRUCTURED PROGRAMMING MACROS:
.*
.*             . CLEMSON UNIVERSITY COMPUTER CENTER STRUCTURED
.*               PROGRAMMING MACROS USER'S GUIDE AND REFERENCE.
.*
.*  ACTIVITY    8/06/05 MGG - NEW
.*
.*--------------------------------------------------------------------*
         GBLA  &SYSALVL                 ARCH LEVEL (SYSSTATE MACRO)
         AIF   (&SYSALVL LT 1).SIM      USE AHI IS AVAILABLE FOR SURE.
&NAME    AHI   &REG,&OP
         MEXIT
.SIM     ANOP                           USE AH TO SIMULATE IS NOT SURE.
&NAME    AH    &REG,=Y(&OP)
         MEND
