.*--------------------------------------------------------------------*
.*  Copyright 2011 by Clemson University Research Foundation          *
.*                                                                    *
.*  Licensed under the Apache License, Version 2.0 (the "License");   *
.*  you may not use this file except in compliance with the License.  *
.*  You may obtain a copy of the License in this library as member    *
.*  $LICENSE, or from                                                 *
.*                                                                    *
.*      http://www.apache.org/licenses/LICENSE-2.0                    *
.*                                                                    *
.*  Unless required by applicable law or agreed to in writing,        *
.*  software distributed under the License is distributed on an "AS   *
.*  IS" BASIS, WITHOUT WARRANTIES OR CONDITIONS OF ANY KIND, either   *
.*  express or implied.  See the License for the specific language    *
.*  governing permissions and limitations under the License.          *
.*--------------------------------------------------------------------*
         MACRO
&NAME    ##LAL &REG,&OP,&LPBASE=YES
.*--------------------------------------------------------------------*
.*
.*  (C) COPYRIGHT 2005.  CLEMSON UNIVERSITY COMPUTER CENTER.
.*
.*  MACRO      ##LAL
.*
.*  TITLE      CLEMSON UNIVERSITY COMPUTER CENTER STRUCTURED
.*             PROGRAMMING MACROS - ##LAL
.*
.*  PURPOSE    INTERNAL MACRO USED TO DO A LOAD ADDRESS LONG.
.*             IF ARCHLVL>1 IT USES THE LARL, OTHERWISE IT
.*             SIMULATES IT.
.*
.*  NOTE       SEE THE FOLLOWING DOCUMENT FOR MORE INFORMATION ON
.*             THIS AND OTHER STRUCTURED PROGRAMMING MACROS:
.*
.*             . CLEMSON UNIVERSITY COMPUTER CENTER STRUCTURED
.*               PROGRAMMING MACROS USER'S GUIDE AND REFERENCE.
.*
.*  ACTIVITY    8/05/05 MGG - NEW
.*
.*--------------------------------------------------------------------*
         GBLA  &SYSALVL                 ARCH LEVEL (SYSSTATE MACRO)
         LCLC  &TAG                     WORK TAG
         AIF   (&SYSALVL LT 2).SIM
&NAME    LARL  &REG,&OP
         MEXIT
.SIM     AIF   ('&LPBASE' EQ 'YES').SIML
         AIF   ('&LPBASE' NE 'NO').ERRLBAS
&NAME    CNOP  0,4
&TAG     SETC  '##LAL__A&SYSNDX'
         ##B   AS,&REG,&TAG
         DC    A(&OP)
&TAG     L     &REG,0(,&REG)
         MEXIT
.SIML    ANOP
&NAME    L     &REG,=A(&OP)
         MEXIT
.ERRLBAS MNOTE 8,'##LAL LPBASE=&LPBASE IS NOT VALID.'
.MEND    MEND
