.*--------------------------------------------------------------------*
.*  Copyright 2011 by Clemson University Research Foundation          *
.*                                                                    *
.*  Licensed under the Apache License, Version 2.0 (the "License");   *
.*  you may not use this file except in compliance with the License.  *
.*  You may obtain a copy of the License in this library as member    *
.*  $LICENSE, or from                                                 *
.*                                                                    *
.*      http://www.apache.org/licenses/LICENSE-2.0                    *
.*                                                                    *
.*  Unless required by applicable law or agreed to in writing,        *
.*  software distributed under the License is distributed on an "AS   *
.*  IS" BASIS, WITHOUT WARRANTIES OR CONDITIONS OF ANY KIND, either   *
.*  express or implied.  See the License for the specific language    *
.*  governing permissions and limitations under the License.          *
.*--------------------------------------------------------------------*
         MACRO
&NAME    ##LHI  &REG,&OP
.*--------------------------------------------------------------------*
.*
.*  (C) COPYRIGHT 2005.  CLEMSON UNIVERSITY COMPUTER CENTER.
.*
.*  MACRO      ##LHI
.*
.*  TITLE      CLEMSON UNIVERSITY COMPUTER CENTER STRUCTURED
.*             PROGRAMMING MACROS - ##LHI
.*
.*  PURPOSE    INTERNAL MACRO USED TO GENERATE AN LOAD HALFWORD
.*             IMMEDIATE BASED ON ARCH LEVEL.
.*
.*  NOTE       SEE THE FOLLOWING DOCUMENT FOR MORE INFORMATION ON
.*             THIS AND OTHER STRUCTURED PROGRAMMING MACROS:
.*
.*             . CLEMSON UNIVERSITY COMPUTER CENTER STRUCTURED
.*               PROGRAMMING MACROS USER'S GUIDE AND REFERENCE.
.*
.*  ACTIVITY    8/06/05 MGG - NEW
.*
.*--------------------------------------------------------------------*
         GBLA  &SYSALVL                 ARCH LEVEL (SYSSTATE MACRO)
         AIF   (&SYSALVL LT 1).SIM      USE LHI IS AVAILABLE FOR SURE.
&NAME    LHI   &REG,&OP
         MEXIT
.SIM     ANOP                           USE LH TO SIMULATE IS NOT SURE.
&NAME    LH    &REG,=Y(&OP)
         MEND
