.*--------------------------------------------------------------------*
.*  Copyright 2011 by Clemson University Research Foundation          *
.*                                                                    *
.*  Licensed under the Apache License, Version 2.0 (the "License");   *
.*  you may not use this file except in compliance with the License.  *
.*  You may obtain a copy of the License in this library as member    *
.*  $LICENSE, or from                                                 *
.*                                                                    *
.*      http://www.apache.org/licenses/LICENSE-2.0                    *
.*                                                                    *
.*  Unless required by applicable law or agreed to in writing,        *
.*  software distributed under the License is distributed on an "AS   *
.*  IS" BASIS, WITHOUT WARRANTIES OR CONDITIONS OF ANY KIND, either   *
.*  express or implied.  See the License for the specific language    *
.*  governing permissions and limitations under the License.          *
.*--------------------------------------------------------------------*
         MACRO
&NAME    ##UCTRT &EXPR,&S=,&F=,&L=
.*--------------------------------------------------------------------*
.*
.*  (C) COPYRIGHT 1998.  CLEMSON UNIVERSITY COMPUTER CENTER.
.*
.*  MACRO      ##UCTRT
.*
.*  TITLE      CLEMSON UNIVERSITY COMPUTER CENTER STRUCTURED
.*             PROGRAMMING MACROS - ##UCTRT
.*
.*  PURPOSE    USER DEFINED CONDITON MACRO FOR TRT.
.*
.*  NOTE       SEE THE FOLLOWING DOCUMENT FOR MORE INFORMATION ON
.*             THIS AND OTHER STRUCTURED PROGRAMMING MACROS:
.*
.*             . CLEMSON UNIVERSITY COMPUTER CENTER STRUCTURED
.*               PROGRAMMING MACROS USER'S GUIDE AND REFERENCE.
.*
.*  ACTIVITY    1/22/86 MGG - NEW
.*             11/03/98 MGG - EXTRACTED FROM SMPUCOND
.*
.*--------------------------------------------------------------------*
.*-------------------------------------------------------------------*
.* Define TRT condition name.  Do a Translate and Test and check the
.* result.
.*     FORM: (%TRT,op1,cond,op2)
.*       EX: (%TRT,PWAFIELD,NE,PSDVALID)
.*-------------------------------------------------------------------*
         AIF (N'&EXPR NE 4).ERR0001
&NAME    TRT   &EXPR(2),&EXPR(4)        Do TRT instruction.
         ##COND &EXPR(3),                                              +
               S=&S,F=&F,L=&L
         MEXIT
.ERR0001 MNOTE 8,'Too many parameters in %TRT expr'
         MEND
