.*--------------------------------------------------------------------*
.*  Copyright 2011 by Clemson University Research Foundation          *
.*                                                                    *
.*  Licensed under the Apache License, Version 2.0 (the "License");   *
.*  you may not use this file except in compliance with the License.  *
.*  You may obtain a copy of the License in this library as member    *
.*  $LICENSE, or from                                                 *
.*                                                                    *
.*      http://www.apache.org/licenses/LICENSE-2.0                    *
.*                                                                    *
.*  Unless required by applicable law or agreed to in writing,        *
.*  software distributed under the License is distributed on an "AS   *
.*  IS" BASIS, WITHOUT WARRANTIES OR CONDITIONS OF ANY KIND, either   *
.*  express or implied.  See the License for the specific language    *
.*  governing permissions and limitations under the License.          *
.*--------------------------------------------------------------------*
         MACRO
&NAME    ##UCEXI &EXPR,&S=,&F=,&L=
.*--------------------------------------------------------------------*
.*
.*  (C) COPYRIGHT 1998.  CLEMSON UNIVERSITY COMPUTER CENTER.
.*
.*  MACRO      ##UCEXI
.*
.*  TITLE      CLEMSON UNIVERSITY COMPUTER CENTER STRUCTURED
.*             PROGRAMMING MACROS - ##UCEXI
.*
.*  PURPOSE    USER DEFINED CONDITON MACRO FOR EXI.
.*
.*  NOTE       SEE THE FOLLOWING DOCUMENT FOR MORE INFORMATION ON
.*             THIS AND OTHER STRUCTURED PROGRAMMING MACROS:
.*
.*             . CLEMSON UNIVERSITY COMPUTER CENTER STRUCTURED
.*               PROGRAMMING MACROS USER'S GUIDE AND REFERENCE.
.*
.*  ACTIVITY    1/22/86 MGG - NEW
.*             11/03/98 MGG - EXTRACTED FROM SMPUCOND
.*
.*--------------------------------------------------------------------*
.*-------------------------------------------------------------------*
.* Define EXI condition name.  EXecute an instruction and test the
.* resulting condition code.
.*     FORM: (%EXI,op1,op2,cond)
.*       EX: (%EXI,R1,(CLC,PWASTUFF,0(R3)),EQ)
.*-------------------------------------------------------------------*
         AIF (N'&EXPR NE 4).ERR0001
&NAME    EXI   &EXPR(2),&EXPR(3)        Call EXI macro.
         ##COND &EXPR(4),                                              +
               S=&S,F=&F,L=&L
         MEXIT
.ERR0001 MNOTE 8,'Too many parameters in %EXI expr'
         MEND
