//CSYSMASA JOB CSYSJCJ,MSGCLASS=J,NOTIFY=CSYSJCJ,COND=(0,NE)
/*JOBPARM ROOM=9917,TIME=999,LINES=999
// EXEC ASMHCL,PARM.ASM=BATCH,PARM.LKED='XREF,LET,LIST'
//ASM.SYSLIB DD
//           DD
//           DD DISP=SHR,DSN=SYS5.MSSMAC
//ASM.SYSIN  DD *
         MACRO
&NAME    MSG   &TEXT,&HAVELEN,&TYPE=CALL,&BALREG=,&MAXLEN=,&BALNAME=,  #
               &MSGNAME=,&DDNAME=,&RECFM=,&DCBNAME=,&FACTOR=
.*
.*********************************************************************.
.*                                                                   *.
.*  GENERATE OR FIND A MESSAGE, AND PRINT IT OUT.  SUPPLIES BAL      *.
.*  ROUTINE NECESSARY, AND MESSAGES.                                 *.
.*                                                                   *.
.*  TEXT            MSG TEXT - EITHER 'XXX' THE ACTUAL TEXT, OR      *.
.*                  XXX, THE ADDRESS OF THE TEXT (WITH DC CLNN       *.
.*                  IMPLICIT LENGTH)                                 *.
.*  HAVELEN         (RECFM=V ONLY).  IF 'HAVE', RDW ASSUMED TO BE    *.
.*                  ACCURATE.  IF OMMITTED, RDW FILLED IN BY         *.
.*                  BACKSCAN FOR NON-BLANK.                          *.
.*  TYPE            TYPE OF CALL:                                    *.
.*                       CALL...GENERATE (OR FIND) TEXT AND LENGTH,  *.
.*                              AND LINK TO PRINT ROUTINE (DEFAULT). *.
.*                       DCB....GENERATE THE MESSAGE DCB             *.
.*                       OPEN...OPEN THE PRINT FILE                  *.
.*                       CLOSE..CLOSE THE PRINT FILE                 *.
.*                       SET....VIEW GLOBALS                         *.
.*                       GEN....GENERATE THE PRINT BAL ROUTINE.      *.
.*                       TEXT...GENERATE THE MESSAGE WITH THE LENGTH *.
.*                              IN FRONT, FOR THE BAL ROUTINE.       *.
.*  BALREG          BAL AND RETURN REGISTER (DEFAULT = R10)          *.
.*  MAXLEN          THE MAXIMUM SIZE OF THE MESSAGE (SIZE OF         *.
.*                  THE BUFFER).  DEFAULT IS 133 BYTES.              *.
.*  BALNAME         NAME OF THE BAL ROUTINE TO BE GENERATED.         *.
.*                  DEFAULT IS 'MSG'.                                *.
.*  MSGNAME         NAME OF THE MESSAGE BUFFER.  DEFAULT IS          *.
.*                  'MSGBUF'                                         *.
.*  DDNAME          DD NAME FOR THE MESSAGE FILE.  DEFAULT SYSPRINT  *.
.*  RECFM           RECORD FORMAT.  DEFAULT FBA                      *.
.*  FACTOR          BLOCKING FACTOR (FULLTRK OR HALFTRK).            *.
.*  DCBNAME         NAME OF DCB      (DEFAULT MSGDCB)                *.
.*                                                                   *.
.*  VIC TOLOMEI - 4/74                                               *.
.*                                                                   *.
.*  UPDATES     - 6/77                                               *.
.*                                                                   *.
.*                                                                   *.
.*********************************************************************.
         GBLA  &GLKSIZE,&GAXLEN,&GAXEX,&NUMBER,&GRECL
         GBLB  &MSGGLOB,&MSGSET     WHETHER GLOBS HAVE BEEN SET ETC
         GBLC  &GBREG,&GMNAME,&GBNAME,&GBNAME#,&GBNAME$,&GBN,&GBNAME@
         GBLC  &GDNAME,&GECFM,&GCBNAME,&GACTOR
         LCLA  &LEN,&LIM,&COUNT
         LCLC  &LABBO,&LENLEN,&TEMP1,&TEMP2,&TEMP3
         AIF   (&MSGGLOB).NORESET       NO INIT GLOBALS
&GBREG   SETC  'R10'
&GBNAME  SETC  'MSG'
&GBN     SETC  'MSG'
&GBNAME# SETC  '&GBN'.'#'
&GBNAME$ SETC  '&GBN'.'$'
&GBNAME@ SETC  '&GBN'.'@'
&GMNAME  SETC  'MSGBUF'
&GDNAME  SETC  'SYSPRINT'
&GECFM   SETC  'FBA'
&GACTOR  SETC  'FULLTRK'
&GAXLEN  SETA  133
&GAXEX   SETA  &GAXLEN-1
&GRECL   SETA  &GAXLEN                  ASSUME 'F'
&GCBNAME SETC  'MSGDCB'
&NUMBER  SETA  0
.*
.*  PROCESS PARMS
.*
.NORESET AIF   ('&BALREG' EQ '').NOREG
&GBREG   SETC  '&BALREG'
.NOREG   AIF   ('&BALNAME' EQ '').NONAME
&GBNAME  SETC  '&BALNAME'
&GBN     SETC  '&BALNAME'(1,3)
&GBNAME# SETC  '&GBN'.'#'
&GBNAME$ SETC  '&GBN'.'$'
&GBNAME@ SETC  '&GBN'.'@'
.NONAME  AIF   ('&MSGNAME' EQ '').NOMSG
&GMNAME  SETC  '&MSGNAME'
.NOMSG   AIF   ('&DDNAME' EQ '').NODDNA
&GDNAME  SETC  '&DDNAME'
.NODDNA  AIF   ('&RECFM' EQ '').NORECF
&GECFM   SETC  '&RECFM'
         AIF   (('&GECFM'(1,1) EQ 'F' OR '&GECFM'(1,1) EQ 'V') AND K'&G#
               ECFM LE 3).NORECF        ITS OK
         MNOTE 8,'INVALID RECFM - &GECFM'
         MEXIT
.NORECF  AIF   ('&DCBNAME' EQ '').NODCBN
&GCBNAME SETC  '&DCBNAME'
.NODCBN  AIF   ('&FACTOR' EQ '').NOFACT
&GACTOR  SETC  '&FACTOR'
.NOFACT  AIF   ('&MAXLEN'  EQ '').NOMAXL
&GAXLEN  SETA  &MAXLEN
&GAXEX   SETA  &GAXLEN-1
&GRECL   SETA  &GAXLEN                  ASSUME 'F'
.NOMAXL  AIF   ('&GECFM'(1,1) EQ 'F').NOMAXL2  OK
&GRECL   SETA  &GAXLEN+4                RECFM=V
.NOMAXL2 ANOP
&GLKSIZE SETA  7294                     ASSUME FULLTRK
         AIF   ('&GACTOR' EQ 'FULLTRK').FULL    RIGHT
         AIF   ('&GACTOR' EQ 'HALFTRK').HALF       NO
         AIF   ('&GACTOR' EQ 'UNBLKED').UNBL       NO BLOCKING
         MNOTE 8,'INVALID BLOCKING FACTOR --- &GACTOR'
         MEXIT
.HALF    ANOP
&GLKSIZE SETA  3520                     HALFTRK NOW
         AGO   .FULL                    GET BLKSIZE NOW
.UNBL    ANOP
&GLKSIZE SETA  &GRECL                   UNBLOCKED, BLKSIZE=LRECL
.FULL    ANOP
&GLKSIZE SETA  (&GLKSIZE/&GRECL)*&GRECL   GET DCB=BLKSIZE MAYBE
         AIF   ('&GECFM'(1,1) EQ 'F').BLKTRK OK, RECFM=F
&GLKSIZE SETA &GLKSIZE+4                RECFM=V, BDW
         AIF   (&GLKSIZE LE 7294).BLKTRK FIT ON TRACK
&GLKSIZE SETA  &GLKSIZE-&GRECL          NO FIT, BACK UP 1 REC
.BLKTRK  ANOP
&MSGGLOB SETB  1                        NO MORE RESETTING
         AIF   (('&TYPE' EQ 'TEXT') OR ('&TYPE' EQ 'DCB')).NONAME$
         AIF   ('&NAME' EQ '').NONAME#
&NAME    DS    0H
.NONAME# AIF   ('&TYPE' EQ 'SET').SET   JUST SET AND VIEW
.NONAME$ AIF   (&MSGSET).NOSET
.SET     ANOP
&MSGSET  SETB  1                        NO MORE DEFAULT VIEWING
.*********************************************************************.
.*  TYPE=SET (OR FIRST ENTRY)                                        *.
.*********************************************************************.
         SPACE 1
         MNOTE *,'MSG MACRO GLOBAL PARAMETERS'
         MNOTE *,'  *** BAL REG ----- &GBREG'
         MNOTE *,'  *** BUFFER LEN -- &GAXLEN'
         AIF   ('&GECFM'(1,1) EQ 'F').FNAMES
         MNOTE *,'  *** BAL NAMES --- &GBNAME, &GBNAME#, &GBNAME$, &GBN#
               AME@'
         AGO   .GOON@
.FNAMES  MNOTE *,'  *** BAL NAMES --- &GBNAME, &GBNAME#, &GBNAME$'
.GOON@   MNOTE *,'  *** BUFFER NAME - &GMNAME'
         MNOTE *,'MSG MACRO DCB PARAMETERS'
         MNOTE *,'  *** DCBNAME ----- &GCBNAME'
         MNOTE *,'  *** DDNAME ------ &GDNAME'
         MNOTE *,'  *** RECFM ------- &GECFM'
         MNOTE *,'  *** LRECL ------- &GRECL'
         MNOTE *,'  *** BLKSIZE ----- &GLKSIZE'
         MNOTE *,'  *** BLOCKING ---- &GACTOR'
         SPACE 1
.*
.NOSET   AIF   ('&TYPE' EQ 'SET').MEND
         AIF   ('&TYPE' EQ 'GEN').GEN
         AIF   ('&TYPE' EQ 'DCB').DCB
         AIF   ('&TYPE' EQ 'OPEN').OPEN
         AIF   ('&TYPE' EQ 'CLOSE').CLOSE
         AIF   ('&TYPE' EQ 'CALL'  OR  '&TYPE' EQ 'TEXT').OKTYPE
         MNOTE 8,'INVALID MSG TYPE, &TYPE'
         MEXIT
.OKTYPE  AIF   ('&TYPE' NE 'CALL').GOON#
         AIF   (('&TEXT' NE '') AND ('&TEXT' NE '&GMNAME')).GOON#
         AIF   ('&HAVELEN' NE '' AND '&GECFM' EQ 'F').BADHAVE
         AIF   ('&GECFM'(1,1) EQ 'F').NORMBAL
         AIF   ('&HAVELEN' EQ '').VBAL
.CHKH    AIF   ('&HAVELEN'(1,1) EQ 'H').NORMBAL
.BADHAVE MNOTE 8,'INVALID LENGTH INDICATOR - &HAVELEN'
         MEXIT
.VBAL    BAL   &GBREG,&GBNAME@
         MEXIT
.NORMBAL BAL   &GBREG,&GBNAME#
         MEXIT
.GOON#   ANOP
         AIF   (('&TYPE' EQ 'CALL') AND ('&TEXT'(1,1) NE '''')).CALLBAL
         AIF   (('&TYPE' EQ 'TEXT') AND ('&TEXT'(1,1) NE '''')).BADTT
&LEN     SETA  K'&TEXT-2                TRIAL LENGTH OF TEXT = COUNT
&LIM     SETA  &LEN                     MAXIMUM LENGTH = MAX(&COUNT)
&COUNT   SETA  2                        OFFSET INTO TEXT
.*  ALLOW FOR DOUBLE QUOTES
.LOOP    AIF   (&COUNT GT &LIM).OUT
         AIF   ('&TEXT'(&COUNT,1) NE '''').GOON  NO QUOTE YET
&LEN     SETA  &LEN-1                   DECREMENT 'REMAINING' COUNTER
&COUNT   SETA  &COUNT+1                 INCREMENT POINTER FOR 1 QUOTE
.GOON    ANOP
&COUNT   SETA  &COUNT+1                 INCREMENT POINTER FOR THIS BYTE
         AGO   .LOOP                    GO TILL DONE WITH ALL TEXT
.OUT     ANOP                           ALL DONE
&LEN     SETA  &LEN-1                   EXECUTE LENGTH
         AIF   (&LEN LE &GAXEX).OKLEN   THE LENGTH IS OK
&COUNT   SETA  &LEN+1                   BACK TO REAL LENGTH (SCRATCH)
         MNOTE 8,'TEXT LENGTH (&COUNT) IS GREATER THAN MAX (&GAXLEN)'
         MEXIT
.OKLEN   AIF   ('&TYPE' EQ 'TEXT').TEXT# TYPE=TEXT
.*********************************************************************.
.*  TYPE=CALL ... CALL THE BAL ROUTINE WITH THE CORRECT MSG          *.
.*********************************************************************.
         AIF   ('&TEXT'(1,1) NE '''').CALLBAL
         LA    R15,=C&TEXT
         AIF   (&LEN NE 0).LA
         XR    R1,R1
         AGO   .BALL
.LA      LA    R1,&LEN
.BALL    BAL   &GBREG,&GBNAME$
         MEXIT
.CALLBAL ANOP
         AIF   ('&TEXT'(1,1) NE '(').NOTREG
         AIF   (('&TEXT(1)' EQ '15') OR ('&TEXT(1)' EQ 'R15')).BALBAL
         LR    R15,&TEXT
         AGO   .BALBAL                  AND PRINT
.NOTREG  LA    R15,&TEXT
.BALBAL  BAL   &GBREG,&GBNAME
         MEXIT
.*********************************************************************.
.*  TYPE=DCB  ... GEN THE DCB                                        *.
.*********************************************************************.
.DCB     ANOP
         SPACE 1
*DCBNAME DCB   DDNAME=DDNAME,MACRF=PM,RECFM=RECFM,LRECL=LRECL
*              BLKSIZE=BLKSIZE,DSORG=PS
         SPACE 1
&GCBNAME DCB   DDNAME=&GDNAME,MACRF=PM,RECFM=&GECFM,LRECL=&GRECL,      #
               BLKSIZE=&GLKSIZE,DSORG=PS
         MEXIT
.*******************************************************************.
.*  TYPE=OPEN                                                        *.
.********************************************************************.
.OPEN    ANOP
*        OPEN  (DCB,OUTPUT)             OPEN THE PRINT FILE
         OPEN  (&GCBNAME,OUTPUT)
         TM    &GCBNAME+48,X'10'
&NUMBER  SETA  &NUMBER+1
&LABBO   SETC  '&NUMBER'(1,2)
&LABBO   SETC  '&GBNAME$'.'&LABBO'
         BO    &LABBO
*        ABEND 1100 NO, ABEND NOW
         LA    R1,1100
*        ABEND (1)
         ABEND (1)
&LABBO   DS    0H
         MEXIT
.*********************************************************************.
.*  TYPE=CLOSE                                                       *.
.*********************************************************************.
.CLOSE   ANOP
         SPACE 1
*        CLOSE DCBNAME CLOSE THE OUTPUT FILE
         CLOSE &GCBNAME
         MEXIT
.*********************************************************************.
.*  TYPE=TEXT ... MAKE THE MSG                                       *.
.*********************************************************************.
.TEXT#   ANOP
         AIF   ('&NAME' NE '').OKTEXTN  NEED NAME
         MNOTE 8,'NAME FIELD REQ WITH TYPE=TEXT'
         MEXIT
.OKTEXTN DC    AL1(&LEN)
&NAME    DC    C&TEXT
         MEXIT
.BADTT   MNOTE 8,'WITH TYPE=TEXT, A QUOTED STRING MUST BE SUPPLIED'
         MEXIT
.*********************************************************************.
.*  TYPE=GEN ... GENERATE THE BAL ROUTINE TO PROCESS THE MESSAGES    *.
.*********************************************************************.
.GEN     ANOP
         SPACE 1
         AIF   ('&GECFM'(1,1) EQ 'V').VBA  RECFM=V NEEDS MORE
&GBNAME  BCTR  R15,0                    BACK UP TO GET LENGTH
         IC    R1,0(,R15)               GET EXECUTE LENGTH
         LA    R15,1(,R15)              FIX THE TEXT PTR
&GBNAME$ EX    R1,&GBN.MVC              MOVE THE MESSAGE TO BUFFER
*        PUT   DCB,BUFFER PRINT FIXED LENGTH MESSAGE
&GBNAME# PUT   &GCBNAME,&GMNAME         PRINT THE MESSAGE
         MVI   &GMNAME,C' '             CLEAR OUT THE MESSAGE BUFFER
         MVC   &GMNAME+1(&GAXEX),&GMNAME
         BR    &GBREG                   RETURN TO CALLER
         SPACE 1
&GBN.MVC MVC   &GMNAME.(0),0(R15)       <<< EXECUTED >>>
         SPACE 1
&GMNAME  DC    CL&GAXLEN' '             MESSAGE BUFFER
.LENLEN# ANOP                           FROM V
&LENLEN  SETC  '&GMNAME'(1,4)
&LENLEN  SETC  '&LENLEN'.'L'
&LENLEN  EQU   &GAXLEN                  LENGTH OF MSG BUFFER
         MEXIT
.*
.*  RECFM=V, WORRY ABOUT RDW
.*
.VBA     ANOP
&GBNAME  BCTR  R15,0                    BACK UP TO GET LENGTH
         XR    R1,R1                    FOR IC
         IC    R1,0(,R15)               GET EXECUTE LENGTH
         LA    R15,1(,R15)              FIX THE TEXT PTR
&GBNAME$ EX    R1,&GBN.MVC              MOVE THE MESSAGE TO BUFFER
&GBN.LEN LA    R1,1+4(,R1)              RECFM=V, MAKE RDW ACTUAL LENGTH
         STH   R1,&GBN.RDW              SAVE LENGTH IN RDW
*        PUT   DCB,BUFFER PRINT OUT THE RECFM=V MESSAGE
&GBNAME# PUT   &GCBNAME,&GBN.RDW        PRINT THE RECFM=V MESSAGE
         MVI   &GMNAME,C' '             CLEAR OUT THE MESSAGE BUFFER
         MVC   &GMNAME+1(&GAXEX),&GMNAME
         BR    &GBREG                   RETURN TO CALLER
         SPACE 1
&GBNAME@ LA    R1,&GMNAME+&GAXEX-1      POINT TO END OF BUFFER
         LA    R0,&GMNAME+2             WHERE TO STOP
&GBN.LP  CR    R0,R1                    STOP LOOKING YET?
         BE    &GBN.GOT                 YES, WE ARE DONE
         CLI   0(R1),C' '               NON-BLANK HERE?
         BNE   &GBN.GOT                 YES, WE HAVE LENGTH
         BCT   R1,&GBN.LP               FIND END OF BUFFER
         SPACE 1
&GBN.GOT LA    R0,&GMNAME               POINT TO BUFFER
         SR    R1,R0                    GET LENGTH OF RECFM V LINE
         B     &GBN.LEN                 AND SAVE IT
         SPACE 1
&GBN.MVC MVC   &GMNAME.(0),0(R15)       <<< EXECUTED >>>
         SPACE 1
&GBN.RDW DC    0F'0',AL2(0),AL2(0)      RDW FOR RECFM=V
&GMNAME  DC    CL&GAXLEN' '             MESSAGE BUFFER
&LENLEN  SETC  '&GMNAME'(1,4)
&LENLEN  SETC  '&LENLEN'.'L'
&LENLEN  EQU   &GAXLEN                  LENGTH OF MSG BUFFER
.MEND    MEND
ESDX TITLE 'E S D X R E F  --  FORM CROSS REFERENCE OF EXTERNAL NAMES'
*
*
ESDXREF  CSECT ,
*
*
*  ESDXREF
*
*
*
*  VIC TOLOMEI      9/77       CCN
*
*
*  GO THROUGH EVERY ESD OF ALL LOAD MODULES IN LIBRARY (LIBRARIES)
*  FROM ANY DD AND FORM A CROSS-REFERENCE OF ALL EXTERNAL SYMBOLS
*  BY MODULE NAME.
*
*  THIS ROUTINE USES SUBROUTINE "ESDREAD" TO READ IN ENTIRE TABLE
*  OF ESD'S FOR THE LIBRARY (LIBRARIES) ON ALL DD'S FOUND.
*
*  TABLE ENTRIES RETURNED ARE OF THE FORM:
*
*        CL8'AN_EXTERNAL_NAME_IN_THAT_MODULE',CL8'MODULE_NAME'
*
*
*  THE TABLE IS BUBBLE-SORTED, AND THE CROSS REFERENCE IS PRINTED
*  ON A PAGE OF SIZE (LINES):
*
PAGESIZE EQU   60
*
*
*  NOTE: THE TABLE IS PRINTED IN TWO WAYS -
*        1) SORTED BY ESD NAME
*        2) SORTED BY MODULE NAME (SIMILAR IN CONCEPT TO THE OUTPUT
*           FROM IMBMDMAP)
*
*
*  THE MAXIMUM NUMBER OF LIBRARY DD'S ALLOWED IN ONE RUN IS:
*
DDMAX    EQU   20
*
         TITLE 'E S D X R E F  --  INITIALIZE'
*
*  ESDXREF
*
         SPACE 2
ESDXREF  CSECT
         SAVE  (14,12),,*               SAVE CALLER'S REGS
         LR    R12,R15                  SET BASE REG
         OACUSING ESDXREF,R12           TELL THE WORLD
         LA    R15,SAVEAREA             POINT TO OUR SAVEAREA
         ST    R15,8(,R13)              LSA TO HIS
         ST    R13,4(,R15)              HSA TO MINE
         LR    R13,R15                  SET SAVEAREA PNTR
         OPEN  (MSGDCB,OUTPUT)          OPEN PRINT FILE
         TM    MSGDCB+48,X'10'          OPEN?
         LA    R1,100                   ABEND CODE IN CASE
         BO    *+6                      BIF OPEN
         SVC   13                       ELSE ABEND
         SPACE 3
*
*  REGISTER USAGE:
*
         SPACE 1
RTABE    EQU   R11                      TABLE ADDRESS       (BXLE)
RTABI    EQU   R10                      TABLE ENTRY LENGTH  (BXLE)
RTAB     EQU   R9                       TABLE END           (BXLE)
RBAL     EQU   R8                       BAL REG
RLEN     EQU   R8                       TABLE ENTRY LEN     (SORT TEMP)
RTABE$   EQU   R7                       TABLE ADDRESS       (SORT ONLY)
RTABI$   EQU   R6                       TABLE ENTRY LENGTH  (SORT ONLY)
RTAB$    EQU   R5                       TABLE END           (SORT ONLY)
RBUF     EQU   R7                       OUTPUT BUFFER PTR   (DUMP ONLY)
RBUFE    EQU   R6                       OUTPUT BUFFER ENDH  (DUMP ONLY)
RBALMSG  EQU   R4                       MSG BAL REG
RPARM    EQU   R3                       RETURN PARM REG FROM ESDREAD
         SPACE 6
*
*  SET UP OUTPUT FILE
*
         SPACE 1
         MSG   TYPE=SET,FACTOR=HALFTRK,RECFM=VBA,BALREG=RBALMSG
         TITLE 'E S D X R E F  --  BUILD THE DD TABLE'
*
*  BUILD THE DD (DSN) TABLE TO PASS TO ESDREAD
*
         SPACE 2
         LA    R15,DDTAB                FIND TABLE
         OACUSING PARMLIST,R15             TEMP BASE
         L     R1,16                    GET CVT
         L     R1,0(,R1)                GET NEW/OLD DISPATCHER DBLW
         L     R1,4(,R1)                GET OLD = MY TCB
         L     R1,12(,R1)               GET MY TIOT
         LA    R14,24                   OFFSET TO NEXT DDNAME
         SPACE 2
DDBLOOP  AR    R1,R14                   POINT TO NEXT DDNAME
         IC    R14,0(,R1)               GET ITS LENGTH
         LTR   R14,R14                  END OF TIOT?
         BZ    DDGOT                    YES, WE HAVE A TABLE
         CLC   4(4,R1),=C'XREF'         XREF DDNAME?
         BNE   DDBLOOP                  BIF NO - CHECK NEXT DDNAME
         SPACE 1
         C     R15,=A(DDTABE)           NO MORE ROOM IN DDNAME TABLE?
         BE    DDOFLO                   RIGHT, ARG
         MVC   PARMDD,4(R1)             NO, COPY TIOT DDNAME TO PARMLST
         LA    R15,PARML(,R15)          NEXT PARMLIST ENTRY
         B     DDBLOOP                  CONTINUE BUILDING PARMLIST
         SPACE 2
         OACDROP R15
         SPACE 2
         OACINUSE ,
         EJECT
*
*  BUILD TABLE BY PASSING DDNAMES TO ESDREAD
*
         SPACE 2
DDGOT    LA    R1,DDTAB                 GET PARMLIST
         SR    R15,R1                   GET LENGTH OF PARMLIST, ANY?
         BNP   BADDD                    NO, YICH
         XR    R14,R14                  YES, FOR DIVIDE
         D     R14,=A(PARML)            GET NUMBER OF PARM ENTRIES
         STH   R15,DDNUM                SAVE AS LINES TO NOT PRINT
         SPACE 2
         L     R15,=V(ESDREAD)          GET ROUTINE NAME
         BALR  R14,R15                  GO GET/BUILD THE TABLE
         SPACE 2
         LR    RPARM,R1                 SAVE RETURN PARM
         SPACE 2
         B     *+4(R15)                 WHAT HAPPENED
         B     GOTTABLE                 0  - OK, SORT THE TABLE
         B     BADDD                    4  - INVALID DD
         B     OFLO                     8  - OFLO IN TABLE
         B     IOERR                    12 - SYNAD
         B     IOERR                    16 - GETENTRY ERROR
         B     NOTFOUND                 20 - NOTHING FOUND
         SPACE 2
GOTTABLE LA    R0,TABLEENT              GET INCREMENT REG FOR BXLE
         ST    R0,4(,RPARM)             SINCE NO FREE TAB CLOBBER TOTLN
         TITLE 'E S D X R E F  --  SORT/PRINT THE TABLE BOTH WAYS'
*
*  SORT AND DUMP THE TABLE FIRST BY ESD NAME
*
         SPACE 2
         BAL   RBAL,SORTPRNT            SORT/PRINT THE TABLE BY ESD
         SPACE 5
*
*  REVERSE THE TABLE TO BE RESORTED BY MODULE NAME
*
         SPACE 2
         LM    RTAB,RTABE,0(RPARM)      SET NEW BXLE REGS
         SPACE 2
         OACUSING TABLED,RTAB
         OACINUSE ,
         SPACE 2
         SPACE 1
REVLOOP  LM    R14,R15,TABLEESD         GET ESDNAME
         LM    R0,R1,TABLEMOD           GET MODNAME
         STM   R14,R15,TABLEMOD         SWITCH
         STM   R0,R1,TABLEESD           ...
         BXLE  RTAB,RTABI,REVLOOP       CONTINUE
         SPACE 2
*
*  FORM AND DUMP THE TABLE FIRST BY MODULE NAME
*
         SPACE 2
         MVI   LINE+1,1                 RESET LINE COUNT TO EJECT PAGE
         MVC   WHICHOFF(11),=C'MODULE NAME'
         MVC   ONEOFF,=C'MOD'           SET NEW HDR
         MVC   TWOOFF,=C'ESD'           SET NEW HDR
         SPACE 1
         BAL   RBAL,SORTPRNT            SORT/PRINT THE TABLE BY MOD
         TITLE 'E S D X R E F  --  EXITS'
*
*  EXITS
*
         SPACE 2
DONE     MSG   '-=====   E S D X R E F   PROCESSING COMPLETED   ====='
         SPACE 2
******   STOP  CLOSE=MSGDCB,RC=0        BYE BYE, DON'T FREE TABLE
         CLOSE (MSGDCB)                 CLOSE MSG FILE
         L     R15,=V(PAR#SORT)         ADDR OF ESDSORT CNTL DATA
         LM    R0,R1,12(R15)            SIZE/LEN OF POSSIBLE CNTL TABLE
         LTR   R0,R0                    ANY WORKAREA?
         BZ    BYEBYE                   BIF NO
         FREEMAIN R,LV=(0),A=(1)        FREE SORT DATA TABLE
BYEBYE   L     R13,4(,R13)              CALLER'S SAVEAREA
         LM    R14,R12,12(R13)          RESTORE CALLER'S REGS
         XR    R15,R15                  SET RETCODE
         BR    R14                      RETURN TO CALLER
         EJECT
*
*  ERROR EXITS
*
         SPACE 2
BADDD    MSG   '-****  INVALID OR MISSING DD CARD(S)  ****'
         B     DONE
         SPACE 2
OFLO     MSG   '-****  OVERFLOW IN NAME TABLE, NEED MORE REGION  ****'
         B     GOTTABLE                 SORT WHAT WE HAVE
         SPACE 2
IOERR    MSG   '-****  I/O ERROR IN MEMBERS, OR I/O ERROR IN DIRECTORY #
                ****'
         B     DONE
         SPACE 2
NOTFOUND MSG   '-****  NO EXTERNAL NAMES FOUND  ****'
         B     DONE
         SPACE 2
DDOFLO   MSG   '-****  TOO MANY DDNAMES SPECIFIED  ****'
         B     DONE
         TITLE 'E S D X R E F  --  BAL ROUTINES'
***********************************************************************
*                                                                     *
*  SORTPRNT                                                           *
*                                                                     *
***********************************************************************
         SPACE 2
*
*  SORT THE TABLE
*
         SPACE 2
SORTPRNT ST    RBAL,0(,R13)             SAVE BAL REG
         L     R15,=V(ESDSORT)          ROUTINE EPA
         L     R1,=V(PAR#SORT)          ROUTINE PARMLIST
         BALR  R14,R15                  SORT TABLE
         SPACE 2
*
*  PRINT THE TABLE
*
         SPACE 2
         LM    RTAB,RTABE,0(RPARM)      SET TABLE BXLE REGS
         LA    RBUFE,TEMPBUF+TEMPBL-8   LAST MODNAME SLOT IN TEMP BUF
         B     DUMPNWST                 SET NEW NAME
         SPACE 2
DUMPLOOP CLC   TABLEESD,OLDNAME         IS THIS A NEW NAME NOW?
         BE    DUMPADMD                 NO, OLD ONE, KEEP ADDING MODS
DUMPBUF  BAL   RBAL,PRINT               YES, DUMP OLD PENDING BUFFER
DUMPNWST MVC   TEMPBUF(8),TABLEESD      SET NEW NAME IN BUFFER
DUMPCNTN LA    RBUF,TEMPBUF+INDENT      INDENT TO 1ST MODULE NAME
DUMPADMD CR    RBUF,RBUFE               IS THERE ROOM FOR ADDED MOD?
         BNH   DUMPCNCT                 YES, CONCATENATE ON END BUFFER
         BAL   RBAL,PRINT               NO, DUMP FULL BUFFER
         B     DUMPCNTN                 CONTINUE SAME ESD WITH NEW BUF
DUMPCNCT MVC   OLDNAME,TABLEESD         NOW NAME IS OLD, REMEMBER IT
         MVC   0(8,RBUF),TABLEMOD       SAVE THIS MODULE NAME
         LA    RBUF,8+1(RBUF)           NEXT SLOT FOR MODULE
         BXLE  RTAB,RTABI,DUMPLOOP      CONTINUE
         SPACE 2
         BAL   RBAL,PRINT               DUMP LAST BUFFER (MAYBE)
         L     RBAL,0(,R13)             RESTORE BAL REG
         BR    RBAL                     RETURN
         SPACE 2
         OACDROP RTAB
         EJECT
***********************************************************************
*                                                                     *
*  PRINT                                                              *
*                                                                     *
***********************************************************************
         SPACE 1
PRINT    LH    R0,LINE                  GET LINE NO
         BCT   R0,PRINTSAM              SAME PAGE
         LA    R1,1                     GET A 1
         AH    R1,PAGE                  GET NEW PAGE NO
         STH   R1,PAGE                  RESET
         CVD   R1,DBLW                  IN DEC
         MVC   PAGEOFF,=X'2020202120'   MASK FOR PAGE
         ED    PAGEOFF-1(6),DBLW+5      GET PAGE TO MSG
         SPACE 1
         MSG   PAGEMSG                  EJECT
         MSG   '0'                      DBL SPACE
         SPACE 1
         LA    R2,DDTAB                 GET DD/DSN TABLE
         OACUSING PARMLIST,R2              TEMP BASE
PRINTLP  MVC   DSNOFF,PARMDSN           COPY A DSN TO MSG
         MSG   DSNMSG                   SAY A DSN
         LA    R2,PARML(,R2)            NEXT ONE
         CLI   0(R2),0                  DONE?
         BNE   PRINTLP                  NO, NEXT MSG FOR NEXT DSN
         SPACE 1
         OACDROP R2
         SPACE 1
         MSG   HDRMSG                   TITLE
         MSG   UNLNMSG                  UNDERLINE
         MVI   MSGBUF,C'0'              DOUBLE SPACE FIRST TIME
         LA    R0,PAGESIZE-7            NEWPAGE, SET CTR (ALLOW HDR)
         SH    R0,DDNUM                 AND ALLOW DSN'S HEADER
         MVC   TEMPBUF(8),OLDNAME       NEW PAGE ALWAYS HAS A MODNAME
         SPACE 1
PRINTSAM STH   R0,LINE                  SAVE NEW LINE NO
         MVC   MSGBUF+1(MSGBL-1),TEMPBUF  SET REAL LINE NOW
         MSG   ,                        PRINT LINE
         SPACE 1
         MVC   TEMPBUF(TEMPBL),MSGBUF   BLANK TEMP BUFFER
         BR    RBAL                     RETURN TO "PRINT" CALLER
         EJECT
***********************************************************************
*                                                                     *
*  MSG                                                                *
*                                                                     *
***********************************************************************
         SPACE 2
         MSG   TYPE=GEN
         SPACE 2
         OACDROP R12
         TITLE 'E S D X R E F  --  DATA'
*
*  DATA
*
         SPACE 2
DBLW     DS    D                        TEMP
SAVEAREA DC    9D'0'                    PGM SAVEAREA
         SPACE 2
LINE     DC    H'1'                     LINE NO (ON LAST, EJECT PAGE)
PAGE     DC    H'0'                     PAGE NO (NONE YET)
         SPACE 2
OLDNAME  DC    CL8' '                   OLD ESD NAME FOR MATCHING
         SPACE 2
         PRINT NOGEN
         MSG   TYPE=DCB
         SPACE 2
PAGEMSG  MSG   '1=====   E S D X R E F   =====   UCLA/OAC EXTERNAL NAME#
                BY MODULE CROSS REFERENCE BY ESD NAME      =====   PAGE#
                XXXXX   =====',TYPE=TEXT
WHICHOFF EQU   PAGEMSG+85               OFFSET TO WHICH SORT THIS IS
PAGEOFF  EQU   PAGEMSG+112,5            OFFSET TO PAGENO
         SPACE 2
DSNMSG   MSG   ' LIBRARY SCANNED: 1234567890123456789012345678901234567#
               8901234',TYPE=TEXT
DSNOFF   EQU   DSNMSG+18,44             OFFSET TO DSN
         SPACE 2
HDRMSG   MSG   '-ESDNAME   MODNAME(S)',TYPE=TEXT
ONEOFF   EQU   HDRMSG+1,3               OFFSET TO TITLE 1
TWOOFF   EQU   HDRMSG+11,3              OFFSET TO TITLE 1
         SPACE 2
UNLNMSG  MSG   '+_______   __________',TYPE=TEXT
         SPACE 2
TEMPBL   EQU   MSGBL-1                  LEN TEMP BUFFER, NO CC
TEMPBUF  DC    (TEMPBL)C' '             TEMP BUILD BUFFER, NO CC
INDENT   EQU   10                       INDENT AFTER ESD NAME
         SPACE 2
         LTORG
         TITLE 'E S D X R E F  --  DSECTS'
*
*  TABLE
*
         SPACE 2
TABLED   DSECT ,                        TABLE ENTRY
TABLEESD DS    CL8                      ESD FOR THIS MODULE
TABLEMOD DS    CL8                      MODULE NAME
TABLEENT EQU   *-TABLED                 LENGTH
TABLELG2 EQU   4                        LOG 2 OF TABLE ENTRY LENGTH
         SPACE 5
*
*  PARMLIST
*
         SPACE 2
PARMLIST DSECT
PARMDD   DS    CL8                      DDNAME
PARMDSN  DS    CL44                     DSNAME
PARML    EQU   *-PARMLIST               LENGTH ENTRY
         SPACE 5
*
*  ACTUAL PARMLIST ALLOWING DDMAX DDNAMES/DSNAMES
*
         SPACE 2
ESDXREF  CSECT
         SPACE 1
DDTAB    DC    (DDMAX)XL(PARML)'00'     DDNAME/DSNAME TABLE
DDTABE   DC    X'00'                    LAST SPOT
         SPACE 1
DDNUM    DC    H'0'                     NUMBER DDNAMES FOUND
         SPACE 2
         OACREGS ,
         SPACE 2
         END
         MACRO
&N       GETENTRY &D,&L,&XFER=LINK,&MF=I
.*
.*  D - DDNAME (ADDR, REG, 'DDNAME')
.*  L - LIST (H'LEN',XL(LEN)) OR IF OMITTED LOCATE FORM ASSUMED
.*      (ENTRY ADDRESS RETURNED IN R1)
.*  XFER - LINK: LINK TO ROUTINE, BUILD LINK LIST
.*         ELSE: ADDR OF WORD WHERE EPA OF GETENTRY IS
.*               (EG: VCON, WORD WHERE LOAD (SVC6) EPA STORED, ETC).
.*
         LCLC  &NN
&NN      SETC  '&N'
         AIF   ('&XFER' NE '' OR '&MF' NE 'I').OKX
         MNOTE 8,'XFER= REQUIRED FOR MF=I'
         MEXIT
.OKX     AIF   ('&MF(1)' EQ 'B' OR '&MF(1)' EQ 'E').MFBE
         AIF   ('&MF' NE 'I').MFL
         AIF   ('&D' NE '').OKD
         MNOTE 8,'DDNAME OPERAND REQUIRED FOR MF=I'
         MEXIT
.OKD     CNOP  0,4
         AIF   ('&XFER' EQ 'LINK').PLUS32
&NN      BAL   1,*+16                   BRANCH AROUND LIST, TYPE=ADDR
         AGO   .SETNN
.PLUS32  ANOP