         MACRO
&LBL     OACJSUVT &DUMMY,&DSECT=YES
         LCLC  &NAME
.**********************************************************************
.*                                                                    *
.*       THE JOB STEP UVT IS OBTAINED BY THE OACJSUVT SERVICE         *
.*       IN SUBPOOL 234 ( FIXED, PK0, JOB-STEP-RELATED, SWAPPABLE,    *
.*        ACCOUNTABLE, AND NOT FETCH PROTECTED.)                      *
.*                                                                    *
.*       NOTE: CHANGES IN THIS MACRO SHOULD BE REFLECTED IN THE       *
.*             FMTJSUVT ROUTINE WHICH MAPS IT FOR PRDUMP.             *
.*                                                                    *
.**********************************************************************
&NAME    SETC  '&LBL'
         AIF   ('&NAME' NE '').L0
&NAME    SETC  'OACJSUVT'
.L0      AIF   ('&DSECT' NE 'YES').L1
&NAME    DSECT
         AGO   .L2
.L1      ANOP
&NAME    DS    0D
.L2      ANOP
JSUVTID  DC    CL8'OACJSUVT'      CB ID
JSUVTSP  DC    AL1(234)           CB SUBPOOL
JSUVTLEN DC    AL3(JSUVTLN)       CB LENGTH
JSUVTACF DC    A(0)               ADDRESS OF OACF'S UVT
JSUVTACT DC    A(0)               ADDRESS OF ACCOUNTING UVT
JSUVTMNT DC    A(0)               ADDRESS OF MOUNT INFO UVT
         DC    10A(0)             RESERVED
JSUVTLN  EQU   *-&NAME
         MEND
