         MACRO
&NAME    OACRET &DUMMY,&RC=
         GBLC   &OACNAME
&OACNAME SETC  '&NAME'
         AIF   ('&RC' EQ '').L1
&OACNAME OACINNER F=&RC,T=(R15),OP=M,SETCC=YES,COM='GET RC'
&OACNAME SETC  ''
.L1      ANOP
&OACNAME LM    R2,R14,8(R11)      RESTORE REGS AN POP STACK
         BR    R14                RETURN TO CALLER
         MEND
