         MACRO                                                          00332
&NAME    SUBEXIT &RC=0,&RENT=NO,&RWALNG=0                               00333
.*             MACRO-ID. 'SUBEXIT'.                                     00334
.*             AUTHOR.   DON HIGGINS.                                   00335
.*             DATE WRITTEN.  07/28/70.                                 00336
.*             REMARKS.  THIS MACRO GENERATES THE CODE TO RESTORE       00337
.*                       REGISTERS AND RETURN FROM A CSECT.  A RETURN   00338
.*                       CODE OF ZERO IS RETURNED UNLESS A DIFFERENT    00339
.*                       CODE IS SPECIFIED USING THE KEY WORD RC=.      00340
.*             REV1 11/14/74 ADD REENTRANT OPTION. SEE SUBENTRY.        00341
         AIF   ('&RENT'(1,1) EQ 'N').NORENT                             00342
.RENT    ANOP                                                           00343
&NAME    L     13,4(13)                                                 00344
         STM   0,1,20(13)                                               00345
         L     1,8(13)                                                  00346
         LA    0,72+&RWALNG                                             00347
         FREEMAIN R,LV=(0),A=(1)                                        00348
         LM    14,12,12(13)                                             00349
         LA    15,&RC                                                   00350
         BR    14                                                       00351
         AGO   .EXIT                                                    00352
.NORENT  ANOP                                                           00353
&NAME    L     13,4(13)                                                 00354
         L     14,12(13)                                                00355
         LM    2,12,28(13)                                              00356
         LA    15,&RC                                                   00357
         BR    14                                                       00358
.EXIT    ANOP                                                           00359
         MEND                                                           00360
