         MACRO                                                          00259
&NAME    SUBENTRY &CSECT=YES,&BASES=(13),&RENT=NO,&RWA=,&RWALNG=0       00260
         LCLA  &NBASE,&S,&OFFSET                                        00261
.*             MACRO-ID. 'SUBENTRY'                                     00262
.*             AUTHOR.   DON HIGGINS.                                   00263
.*             DATE WRITTEN.  07/28/70.                                 00264
.*             REMARKS.  THIS MACRO GENERATES THE CODE TO ESTABLISH A   00265
.*                       CSECT WITH SAVE AREA AND BASE REGISTER USING   00266
.*                       STANDARD OS LINKAGE CONVENTIONS.               00267
.*             REV1 11/14/74 ADD REENTRANT OPTION WITH WORK AREA        00268
.*                 1.  FOR REENTRANT LINKAGE YOU MUST SPECIFY           00269
.*                     A.  RENT=YES                                     00270
.*                     B.  AT LEAST ONE BASE REGISTER OTHER THAN 13     00271
.*                         SUCH AS BASES=(R12)                          00272
.*                 2.  OPTIONALLY YOU CAN SPECIFY A DSECT NAME AND      00273
.*                     LENGTH FOR A WORK AREA BUILT BEHIND SAVE AREA.   00274
.*                     FOR EXAMPLE  RWADSECT=MYWORK,RWALNG=8            00275
.*                     NOTE THAT THIS WORK AREA LENGTH MUST ALSO BE     00276
.*                     SPECIFIED AT SUBEXIT TIME TO CORRECTLY CALCULATE 00277
.*                     THE FREEMAIN LENGTH.                             00278
         AIF   ('&CSECT'(1,1) EQ 'N').NOCSECT                           00279
&NAME    CSECT                                                          00280
         AGO   .STM                                                     00281
.NOCSECT ANOP                                                           00282
&NAME    DS    0D                                                       00283
.STM     ANOP                                                           00284
         AIF   ('&RENT'(1,1) EQ 'N').NORENT                             00285
.RENT    ANOP                                                           00286
         STM   14,12,12(13)                                             00287
         BAL   &BASES(1),16(15)                                         00288
         USING &NAME+8,&BASES(1)                                        00289
         DC    CL8'&NAME'                                               00290
         LA    0,72+&RWALNG                                             00291
         GETMAIN R,LV=(0)                                               00292
         ST    1,8(13)                                                  00293
         ST    13,4(1)                                                  00294
         LM    14,1,12(13)                                              00295
         L     13,8(13)                                                 00296
         AIF   (&RWALNG EQ 0).GEN                                       00297
         USING &RWA-72,13                                               00298
         AGO   .GEN                                                     00299
.NORENT  ANOP                                                           00300
         STM   14,12,12(13)                                             00301
         BAL   15,88(15)                                                00302
         DC    9D'0'                                                    00303
         DC    CL8'&NAME'                                               00304
         ST    15,8(13)                                                 00305
         ST    13,4(15)                                                 00306
         LR    13,15                                                    00307
         AIF   (T'&BASES(1) NE 'N').CHKR13                              00308
         AIF   (&BASES(1) EQ 13).GENB13                                 00309
         AGO   .GENBX                                                   00310
.CHKR13  ANOP                                                           00311
         AIF   ('&BASES'(2,3) EQ 'R13').GENB13                          00312
.GENBX   ANOP                                                           00313
         LR    &BASES(1),13                                             00314
         USING &NAME+8,&BASES(1)                                        00315
         AGO   .GEN                                                     00316
.GENB13  ANOP                                                           00317
         USING &NAME+8,13                                               00318
.GEN     ANOP                                                           00319
&NBASE   SETA  N'&BASES                                                 00320
&S       SETA  1                                                        00321
.L1      ANOP                                                           00322
&S       SETA  &S+1                                                     00323
         AIF   (&S GT &NBASE).EXIT                                      00324
&OFFSET  SETA  &OFFSET+4095                                             00325
         LA    &BASES(&S),4095(&BASES(&S-1))                            00326
         USING &NAME+8+&OFFSET,&BASES(&S)                               00327
         AGO   .L1                                                      00328
.EXIT    ANOP                                                           00329
         MEND                                                           00330
