         MACRO                                                          00372
&NAME    TAG                                                            00373
&NAME    DS    0H                                                       00374
         MEND                                                           00375
