         MACRO
&NAME    RLINK &RC=0
&NAME    LR    1,13
         L     13,4(,1)
         LR    3,15
         FREEMAIN R,LV=72,SP=0,A=(1)
         AIF   ('&RC' EQ '(15)').ALTER
         LM    14,12,12(13)
         LA    15,&RC
.OUT     BR    14
         MEXIT
.ALTER   L     14,12(13)
         LR    15,3
         LM    0,12,20(13)
         AGO   .OUT
         MEND
