         MACRO
&NAME    SMFWTMM1
SMFWTMM1 DSECT
MJORXLEN DS  BL2'0'   RECORD LENGTH
MJORXSEG DS  BL2'0'   SEGMENT DESCRIPTOR
MJORXFLG DC  BL1'0'   STANDARD SMF HEADER FLAG BYTE
MJORXRRF EQU  X'80'      NEW SMF RECORD FORMAT
*                          - SUBSYSTEM ID FOLLOWS SYSTEM ID
MJORXSUT EQU  X'40'      SUBTYPE UTILIZED IF ON
MJORXV4  EQU  X'10'      MVS/ESA Version 4 IF ON
MJORXESA EQU  X'08'      MVS/ESA VERSION IF ON
MJORXVXA EQU  X'04'       MVS/XA VERSION IF ON
MJORXOS  EQU  X'02'     OPERATING SYSTEM IS OS/VS2 (VS2)
MJORXBFY EQU  X'01'      BERRYMAN MACHINE           (VS1)
MJORXRTY DC  BL1'0'   RECORD TYPE
MJORXTME DC  XL4' '   TIME RECORD WAS MOVED TO SMF BUFFER,
*                       IN HUNDREDTHS OF A SECOND.
MJORXDTE DC  PL4'0'   DATE RECORD WAS MOVED TO SMF BUFFER,
*                       IN THE FORM OcyydddF(WHERE 'F' IS THE SIGN)
MJORXSID DC  CL4' '   SYSTEM IDENTIFIER
MJORXSSI DC  CL4' '   SUBSYSTEM IDENTIFIER
MJORXSTY DC  BL2'00'  RECORD SUBTYPE
*                       1 - DATA
*                       2 - RUN STATISTICS
*
*        SELF DEFINING SECTION
*
MJORXNT  DS  BL2      Number of triplets (4)
         DS  XL2      Reserved
*
*   -----------------------------------------------------------------
*    Product Section Triplet
*   -----------------------------------------------------------------
*
MJORXPOF DS  BL4      Offset to product section
MJORXPLN DS  BL2      Length of product section
MJORXPON DS  BL2      Number of product sections
*
*   -----------------------------------------------------------------
*    Execution Statistics Triplet
*   -----------------------------------------------------------------
*
MJORXSOF DS  BL4      Offset to statistics section
MJORXSLN DS  BL2      Length of statistics section
MJORXSON DS  BL2      Number of statistics sections
*
*   -----------------------------------------------------------------
*    Task Identification Section Triplet
*   -----------------------------------------------------------------
*
MJORXIOF DS  BL4      OFFSET TO IDENTIFICATION section
MJORXILN DC  BL2'0'   LENGTH OF IDENTIFICATION sections
MJORXION DC  BL2'0'   NUMBER OF IDENTIFICATION sections (always 1)
*
*   -----------------------------------------------------------------
*    User Data Section Triplet
*   -----------------------------------------------------------------
*
MJORXDOF DS  BL4      OFFSET TO user supplied data sections
MJORXDLN DC  BL2'0'   LENGTH OF user supplied data sections (varies)
MJORXDON DC  BL2'0'   NUMBER OF user supplied data sections (varies)
*
*        Product/Subsystem Section
*
MJORXPSS DS  0X
MJORXRVN DC  CL8'0'   RECORD VERSION
MJORXRVD DC  CL8'0'   RECORD COMPILE DATE
MJORXPNM DC  CL8'0'   SUBSYTEM/PRODUCT NAME
MJORXOWN DC  CL16' '  Product owner
MJORXNAM DC  CL16' '  Product name.
MJORXVER DC  CL2' '   Product version
MJORXREL DC  CL2' '   Product release
MJORXMOD DC  CL2' '   Product mod level
MJORXSEQ DC  F'0'     Product sequence number
MJORXSYN DC  CL8' '   Current System Name Value
*                       (from SYSNAME Parmlib Option)
MJORXSYP DC  CL8' '   Sysplex name
MJORXPSL EQU *-MJORXPSS
*
*        Job / Session Identification
*
MJORXID  DS  0X
MJORXJBN DC  CL8' '   JMRJOB   JOB OR SESSION NAME
MJORXRST DC  XL4'0'   JMRENTRY TIME, IN HUNDREDTHS OF A SECOND
*                                READER RECOGNIZED THE JOB CARD
MJORXRSD DC  PL4'0'   JMREDATE  DATE READER RECOGNIZED THE JOB
*                                CARD FOR THIS JOB, IN THE FORM
*                                OCYYDDDF (WHERE 'F' IS THE SIGN).
MJORXJNM DC  CL8' '   SSIB/JCTJOBID JES JOB IDENTIFIER
MJORXSTN DC  BL2'0'   SCTSNUMB    STEP NUMBER
MJORXSTM DC  CL8' '   SCTSNAME    STEP NAME          MXG STEPNAME
MJORXPSN DC  CL8' '   SCTSCLPC    STEP THAT INVOKED THE PROCEDURE,
*                                   BLANK WHEN STEP IS NOT PART OF A
*                                   PROCEDURE.       MXG PROCSTEP
MJORXUSR DC  CL20' '  ACTPRGNM    PROGRAMMERS NAME        @G742PJW
MJORXUIF DC  CL8' '   JMRUSEID    USER IDENTIFICATION (TAKEN
MJORXRUD DC  CL8' '   ACEEUSRI    RACF USER ID. 0=RACF NOT ACTIVE
MJORXIDL EQU *-MJORXID
*
MJORXHLN EQU *-SMFWTMM1
MJORXDAT EQU *
*
*        Execution Statistics
*
MJORXSTS DS  0X
MJORXBTM DC  XL4'0'   time processing began
MJORXBDT DC  PL4'0'   date processing began
MJORXETM DC  XL4'0'   time processing ended
MJORXETD DC  PL4'0'   date processing ended
MJORXCNT DC  BL4'0'   number of user records provided
MJORXERR DC  BL4'0'   number of errors
MJORXWRI DC  BL4'0'   number of user records written
MJORXSMF DC  BL4'0'   number of SMF records written
MJORXLIM DC  BL4'0'   record limit used
MJORXPFG DC  BL4'0'   PROCESSING FLAGS
MJORXTOO EQU X'80'    Too many records provided
MJORXSTL EQU *-MJORXSTS
         MEND
