         MACRO
&NAME    MVSAREAS  &LISTGEN=NO,&ALL=NO,                                X
               &ASCB=NO,                                               X
               &ACEE=NO,                                               X
               &ASVT=NO,                                               X
               &CDE=NO,                                                X
               &CIB=NO,                                                X
               &CPPL=NO,                                               X
               &CSCB=NO,                                               X
               &CSOA=NO,                                               X
               &CSPL=NO,                                               X
               &CVT=NO,                                                X
               &DAIR=NO,                                               X
               &DCB=NO,                                                X
               &DEB=NO,                                                X
               &DSAB=NO,                                               X
               &DYNAL=NO,                                              X
               &ECT=NO,                                                X
               &FRR=NO,                                                X
               &GDA=NO,                                                X
               &IOB=NO,                                                X
               &IOPL=NO,                                               X
               &JCT=NO,                                                X
               &JESCT=NO,                                              X
               &JFCB=NO,                                               X
               &JMR=NO,                                                X
               &JSCB=NO,                                               X
               &LCT=NO,                                                X
               &LWA=NO,                                                X
               &PCCB=NO,                                               X
               &PDS=NO,                                                X
               &PGPB=NO,                                               X
               &PPL=NO,                                                X
               &PSA=NO,                                                X
               &PSAE=NO,                                               X
               &PSCB=NO,                                               X
               &PTPB=NO,                                               X
               &RB=NO,                                                 X
               &SCT=NO,                                                X
               &SDWA=NO,                                               X
               &SMCA=NO,                                               X
               &SRB=NO,                                                X
               &SSCT=NO,                                               X
               &SSIB=NO,                                               X
               &SSOB=NO,                                               X
               &STPL=NO,                                               X
               &SVT=NO,                                                X
               &TCB=NO,                                                X
               &TCT=NO,                                                X
               &TEXT=NO,                                               X
               &TIOT=NO,                                               X
               &TSO=NO,                                                X
               &TSB=NO,                                                X
               &TSVT=NO,           TSO VECTOR TABLE (CVTTVT)           X
               &UCB=NO,                                                X
               &UCM=NO,                                                X
               &UPT=NO,                                                X
               &WQE=NO,                                                X
               &WSAVT=NO
         LCLB  &FLAG,&LFLAG,&TSOFLAG
&FLAG    SETB  ('&ALL' EQ 'YES')
&LFLAG   SETB  ('&LISTGEN' EQ 'YES')
&TSOFLAG SETB  ('&TSO' EQ 'YES')
         PUSH  PRINT
         AIF   (&LFLAG).GEN0000
         PRINT NOGEN
.GEN0000 ANOP
.*
.*
         AIF   (&FLAG).PSA
         AIF   ('&PSA' NE 'YES').NOPSA
.PSA     ANOP
         MNOTE 'IHAPSA   -- MVS PSA D-SECT'
         IHAPSA LIST=&LISTGEN
.NOPSA   ANOP
.*
         AIF   (&FLAG).PSAE
         AIF   ('&PSAE' NE 'YES').NOPSAE
.PSAE    ANOP
         MNOTE 'IHAPSAE   -- MVS PSAE D-SECT'
         IHAPSAE LIST=&LISTGEN
.NOPSAE  ANOP
.*
.*
         AIF   (&FLAG).CVT
         AIF   ('&CVT' NE 'YES').NOCVT
.CVT     ANOP
         MNOTE 'CVT      -- MVS CVT D-SECT'
         CVT   LIST=&LISTGEN,SYS=AOS2,OPTIONS=(NOSLICE,INTERVAL,0),    C
               TSO=YES,PREFIX=NO,FLAG=00,FLAGB=00,PATCH=NO,            C
               REAL=0,DSECT=YES,RPS=YES,CVTTZ=0,CTLFLGS=00,            C
               LOADBAL=NO,CBMRTN=NO,WARN=0,STORAGE=0
CVTDSECT EQU   CVT                 ALTERNATE NAME FOR DSECT
         MNOTE 'IHAECVT  -- MVS CVT EXTENTED D-SECT'
         IHAECVT DSECT=YES,LIST=&LISTGEN
.NOCVT   ANOP
.*
.*
         AIF   (&FLAG).ASVT
         AIF   ('&ASVT' NE 'YES').NOASVT
.ASVT    ANOP
         MNOTE 'IHAASVT  -- MVS ASVT D-SECT'
         IHAASVT
.NOASVT  ANOP
.*
.*
         AIF   (&FLAG).ASCB
         AIF   ('&ASCB' NE 'YES').NOASCB
.ASCB    ANOP
         MNOTE 'IHAASCB  -- MVS ASCB D-SECT'
         IHAASCB LIST=&LISTGEN
         MNOTE 'IHAASXB  -- MVS ASXB D-SECT'
         IHAASXB LIST=&LISTGEN
.NOASCB  ANOP
.*
.*
         AIF   (&FLAG).ACEE
         AIF   ('&ACEE' NE 'YES').NOACEE
.ACEE    ANOP
         MNOTE 'IHAACEE  -- MVS ACEE D-SECT'
         IHAACEE
.NOACEE  ANOP
.*
.*
         AIF   (&FLAG).GDA
         AIF   ('&GDA' NE 'YES').NOGDA
.GDA     ANOP
         MNOTE 'IHAGDA   -- MVS GDA D-SECT'
         IHAGDA
.NOGDA   ANOP
.*
.*
         AIF   (&FLAG).TCB
         AIF   ('&TCB' NE 'YES').NOTCB
.TCB     ANOP
         MNOTE 'IKJTCB   -- MVS TCB D-SECT'
         IKJTCB  LIST=&LISTGEN,SYS=AOS2,DSECT=YES
TCBDSECT EQU   TCB
.NOTCB   ANOP
.*
.*
         AIF   (&FLAG).TCT
         AIF   ('&TCT' NE 'YES').NOTCT
.TCT     ANOP
         MNOTE 'IEFTCT   -- MVS TCT D-SECT'
         IEFTCT  DSECT=YES
TCTDSECT EQU   SMFTCT
.NOTCT   ANOP
.*
         AIF   (&FLAG).TSB
         AIF   ('&TSB' NE 'YES').NOTSB
.TSB     ANOP
         MNOTE 'IKJTSB   -- MVS TSB D-SECT'
         IKJTSB  LIST=&LISTGEN,EXT=YES
TSBDSECT EQU   TSB
.NOTSB   ANOP
.*
.*
         AIF   (&FLAG).RB
         AIF   ('&RB' NE 'YES').NORB
.RB      ANOP
         MNOTE 'IHARB    -- MVS RB D-SECT'
         IHARB
.NORB    ANOP
.*
.*
         AIF   (&FLAG).CDE
         AIF   ('&CDE' NE 'YES').NOCDE
.CDE     ANOP
         MNOTE 'IHACDE   -- MVS CDE D-SECT'
         IHACDE
.NOCDE   ANOP
.*
.*
         AIF   (&FLAG).SRB
         AIF   ('&SRB' NE 'YES').NOSRB
.SRB     ANOP
         MNOTE 'IHASRB   -- MVS SRB D-SECT'
         IHASRB
.NOSRB   ANOP
.*
.*
         AIF   (&FLAG).FRR
         AIF   ('&FRR' NE 'YES').NOFRR
.FRR     ANOP
         MNOTE 'IHAFRRS  -- MVS FRR D-SECT'
         IHAFRRS
.NOFRR   ANOP
.*
.*
         AIF   (&FLAG).SDWA
         AIF   ('&SDWA' NE 'YES').NOSDWA
.SDWA    ANOP
         MNOTE 'IHASDWA  -- MVS SDWA D-SECT'
         IHASDWA
.NOSDWA  ANOP
.*
.*
         AIF   (&FLAG).SMCA
         AIF   ('&SMCA' NE 'YES').NOSMCA
.SMCA    ANOP
         MNOTE 'IEESMCA  -- MVS SMCA D-SECT'
         IEESMCA
.NOSMCA  ANOP
.*
.*
         AIF   (&FLAG).WQE
         AIF   ('&WQE' NE 'YES').NOWQE
.WQE     ANOP
         MNOTE 'IHAWQE   -- MVS WQE D-SECT'
         IHAWQE
.NOWQE   ANOP
.*
.*
         AIF   (&FLAG).UCM
         AIF   ('&UCM' NE 'YES').NOUCM
.UCM     ANOP
         MNOTE 'IEECUCM  -- MVS UCM D-SECT'
UCM      DSECT
         IEECUCM  REPLY=1,BUFFERS=1,MCS=,                              C
               EXIT=,MASTCON=,HARDCDE=,OLDWCDE=,                       C
               HARDCPY=(SYSLOG,NOCMDS,NOHCPY),                         C
               FORMAT=OLD,SYS=AOS2,DSECT=YES
UCMDSECT EQU   UCM                 ALTERNATE NAME FOR DSECT
.NOUCM   ANOP
.*
.*
         AIF   (&FLAG).DCB
         AIF   ('&DCB' NE 'YES').NODCB
.DCB     ANOP
         MNOTE 'IHADCB   -- MVS DCB D-SECT'
         DCBD DSORG=PS
.NODCB   ANOP
.*
.*
         AIF   (&FLAG).DEB
         AIF   ('&DEB' NE 'YES').NODEB
.DEB     ANOP
         MNOTE 'IEZDEB   -- MVS DEB D-SECT'
         IEZDEB LIST=&LISTGEN
.NODEB   ANOP
.*
.*
         AIF   (&FLAG).DSAB
         AIF   ('&DSAB' NE 'YES').NODSAB
.DSAB    ANOP
         MNOTE 'IHADSAB   -- MVS DSAB D-SECT'
         IHADSAB
.NODSAB  ANOP
.*
.*
         AIF   (&FLAG).TSVT
         AIF   ('&TSVT' NE 'YES').NOTSVT
.TSVT    ANOP
         MNOTE 'TSVT -- MVS/TSO TSVT D-SECT'
         IKJTSVT
.NOTSVT  ANOP
.*
.*
         AIF   (&FLAG).UCB
         AIF   ('&UCB' NE 'YES').NOUCB
.UCB     ANOP
         MNOTE 'IEFUCBOB -- MVS UCB D-SECT'
         TITLE 'IEFUCBOB -- MVS UCB D-SECT'
UCBDSECT DSECT
         IEFUCBOB
         TITLE 'IECUCBCX -- MVS UCB TAPE  '
         IECUCBCX
.NOUCB   ANOP
.*
.*
         AIF   (&FLAG).IOB
         AIF   ('&IOB' NE 'YES').NOIOB
.IOB     ANOP
         MNOTE 'IEZIOB   -- MVS IOB D-SECT'
         IEZIOB
IOBSIZE  EQU   (IOBEXTEN-IOBSTDRD)+L'IOBSEEK
.NOIOB   ANOP
.*
.*
         AIF   (&FLAG).JSCB
         AIF   ('&JSCB' NE 'YES').NOJSCB
.JSCB    ANOP
         MNOTE 'IEZJSCB  -- MVS JSCB D-SECT'
         IEZJSCB
JSCB     EQU   IEZJSCB
.NOJSCB  ANOP
.*
.*
         AIF   (&FLAG).LCT
         AIF   ('&LCT' NE 'YES').NOLCT
.LCT     ANOP
         MNOTE 'IEFALLCT - MVS LCT D-SECT'
LCT      DSECT ,
         IEFALLCT ,
LCTDSECT EQU   LCT
.NOLCT   ANOP
.*
.*
         AIF   (&FLAG).LWA
         AIF   ('&LWA' NE 'YES').NOLWA
.LWA     ANOP
         MNOTE 'IEFLWA  -- MVS LWA D-SECT'
         IKJEFLWA
.NOLWA   ANOP
.*
.*
         AIF   (&FLAG  OR  &TSOFLAG).CPPL
         AIF   ('&CPPL' NE 'YES').NOCPPL
.CPPL    ANOP
         MNOTE 'IKJCPPL  -- MVS/TSO CPPL D-SECT'
         IKJCPPL
CPPLSIZE EQU   *-CPPL
.NOCPPL  ANOP
.*
.*
         AIF   (&FLAG  OR  &TSOFLAG).DAIR
         AIF   ('&DAIR' NE 'YES').NODAIR
.DAIR    ANOP
         MNOTE 'IKJDAPL  -- MVS/TSO DAPL D-SECT'
         IKJDAPL
DAPLSIZE EQU   *-DAPL
         MNOTE 'IKJDAP2C -- MVS/TSO/DAIR DAPB2C D-SECT'
         IKJDAP2C
.NODAIR  ANOP
.*
.*
         AIF   (&FLAG  OR  &TSOFLAG).CSOA
         AIF   ('&CSOA' NE 'YES').NOCSOA
.CSOA    ANOP
         MNOTE 'IKJCSOA  -- MVS/TSO CSOA D-SECT'
         IKJCSOA
CSOASIZE EQU   *-CSOA
.NOCSOA  ANOP
.*
.*
         AIF   (&FLAG  OR  &TSOFLAG).CSPL
         AIF   ('&CSPL' NE 'YES').NOCSPL
.CSPL    ANOP
         MNOTE 'IKJCSPL  -- MVS/TSO CSPL D-SECT'
         IKJCSPL
CSPLSIZE EQU   *-CSPL
.NOCSPL  ANOP
.*
.*
         AIF   (&FLAG  OR  &TSOFLAG).ECT
         AIF   ('&ECT' NE 'YES').NOECT
.ECT     ANOP
         MNOTE 'IKJECT   -- MVS/TSO ECT D-SECT'
         IKJECT
ECTSIZE  EQU   *-ECT
.NOECT   ANOP
.*
.*
         AIF   (&FLAG  OR  &TSOFLAG).IOPL
         AIF   ('&IOPL' NE 'YES').NOIOPL
.IOPL    ANOP
         MNOTE 'IKJIOPL  -- MVS/TSO IOPL D-SECT'
         IKJIOPL
IOPLSIZE EQU   *-IOPL
.NOIOPL  ANOP
.*
.*
         AIF   (&FLAG  OR  &TSOFLAG).PGPB
         AIF   ('&PGPB' NE 'YES').NOPGPB
.PGPB    ANOP
         MNOTE 'IKJPGPB  -- MVS/TSO PGPB D-SECT'
         IKJPGPB
PGPBSIZE EQU   *-PGPB
.NOPGPB  ANOP
.*
.*
         AIF   (&FLAG  OR  &TSOFLAG).PPL
         AIF   ('&PPL' NE 'YES').NOPPL
.PPL     ANOP
         MNOTE 'IKJPPL   -- MVS/TSO PPL D-SECT'
         IKJPPL
PPLSIZE  EQU   *-PPL
.NOPPL   ANOP
.*
.*
         AIF   (&FLAG  OR  &TSOFLAG).PTPB
         AIF   ('&PTPB' NE 'YES').NOPTPB
.PTPB    ANOP
         MNOTE 'IKJPTPB  -- MVS/TSO PTPB D-SECT'
         IKJPTPB
PTPBSIZE EQU   *-PTPB
.NOPTPB  ANOP
.*
.*
         AIF   (&FLAG  OR  &TSOFLAG).STPL
         AIF   ('&STPL' NE 'YES').NOSTPL
.STPL    ANOP
         MNOTE 'IKJSTPL  -- MVS/TSO STPL D-SECT'
         IKJSTPL
STPLSIZE EQU   *-STPL
.NOSTPL  ANOP
.*
.*
         AIF   (&FLAG  OR  &TSOFLAG).UPT
         AIF   ('&UPT' NE 'YES').NOUPT
.UPT     ANOP
         MNOTE 'IKJUPT   -- MVS/TSO UPT D-SECT'
         IKJUPT
.NOUPT   ANOP
.*
.*
         AIF   (&FLAG  OR  &TSOFLAG).PSCB
         AIF   ('&PSCB' NE 'YES').NOPSCB
.PSCB    ANOP
         MNOTE 'IKJPSCB  -- MVS PSCB D-SECT'
         IKJPSCB
.NOPSCB  ANOP
.*
.*
         AIF   (&FLAG).CSCB
         AIF   ('&CSCB' NE 'YES').NOCSCB
.CSCB    ANOP
         MNOTE 'IEECHAIN -- MVS CSCB D-SECT'
CSCB     DSECT
         IEECHAIN
.NOCSCB  ANOP
.*
.*
         AIF   (&FLAG).CIB
         AIF   ('&CIB' NE 'YES').NOCIB
.CIB     ANOP
         MNOTE 'IEZCIB   -- MVS CIB D-SECT'
CIBDSECT DSECT
         IEZCIB
.NOCIB   ANOP
.*
.*
         AIF   (&FLAG).JFCB
         AIF   ('&JFCB' NE 'YES').NOJFCB
.JFCB    ANOP
         MNOTE 'IEFJFCBN -- MVS JFCB D-SECT'
JFCB     DSECT
         IEFJFCBN LIST=&LISTGEN
.NOJFCB  ANOP
.*
.*
         AIF   (&FLAG).JMR
         AIF   ('&JMR' NE 'YES').NOJMR
.JMR     ANOP
         MNOTE 'IEFJMR  -- MVS JMR D-SECT'
         IEFJMR
.NOJMR   ANOP
.*
.*
         AIF   (&FLAG).TIOT
         AIF   ('&TIOT' NE 'YES').NOTIOT
.TIOT    ANOP
         MNOTE 'IEFTIOT1 -- MVS TIOT D-SECT'
TIOT     DSECT
         IEFTIOT1
.NOTIOT  ANOP
.*
.*
         AIF   (&FLAG).WSAVT
         AIF   ('&WSAVT' NE 'YES').NOWSAVT
.WSAVT   ANOP
         MNOTE 'IHAWSAVT -- MVS WSAVT D-SECT'
         IHAWSAVT CLASS=GLOBAL
.NOWSAVT ANOP
.*
.*
         AIF   (&FLAG).TEXT
         AIF   ('&TEXT' NE 'YES').NOTEXT
.TEXT    ANOP
         MNOTE 'IEFTXTFT -- MVS INTERNAL TEXT STRING FORMATS D-SECT'
         IEFTXTFT
         MNOTE 'IEFVKEYS -- MVS INTERNAL TEXT KEYS D-SECT'
         IEFVKEYS
.NOTEXT  ANOP
.*
.*
         AIF   (&FLAG).JCT
         AIF   ('&JCT' NE 'YES').NOJCT
.JCT     ANOP
         MNOTE 'IEFAJCTB -- MVS JCT D-SECT'
JCT      DSECT
         IEFAJCTB
JCTDSECT DSECT
         MNOTE 'IEFJCTX  -- MVS JCTX D-SECT'
JCTX     DSECT
         IEFJCTX
JCTXDSCT DSECT
.NOJCT   ANOP
         AIF   (&FLAG).SCT
         AIF   ('&SCT' NE 'YES').NOSCT
.SCT     ANOP
         MNOTE 'IEFASCTB -- MVS SCT D-SECT'
SCT      DSECT
         IEFASCTB
SCTDSECT DSECT
         MNOTE 'IEFSCTX  -- MVS SCTX D-SECT'
SCTX     EQU   SCTXIN
         IEFSCTX
SCTXDSCT DSECT
.NOSCT   ANOP
.*
.*
         AIF   (&FLAG).JESCT
         AIF   ('&JESCT' NE 'YES').NOJESCT
.JESCT   ANOP
         MNOTE 'IEFJESCT -- MVS JESCT D-SECT'
         IEFJESCT
JESCTSIZ EQU   *-JESCT                 SIZE OF THE JESCT DSECT
.NOJESCT ANOP
.*
.*
         AIF   (&FLAG).SSCT
         AIF   ('&SSCT' NE 'YES').NOSSCT
.SSCT    ANOP
         MNOTE 'IEFJSCVT -- MVS SSCVT (SSCT) D-SECT'
         IEFJSCVT
.NOSSCT  ANOP
.*
.*
         AIF   (&FLAG).SSIB
         AIF   ('&SSIB' NE 'YES').NOSSIB
.SSIB    ANOP
         MNOTE 'IEFJSSIB -- MVS SSIB D-SECT'
         IEFJSSIB
.NOSSIB  ANOP
.*
.*
         AIF   (&FLAG).SSOB
         AIF   ('&SSOB' NE 'YES').NOSSOB
.SSOB    ANOP
         MNOTE 'IEFJSSOB -- MVS SSOB D-SECT'
         IEFJSSOB
.NOSSOB  ANOP
.*
.*
         AIF   (&FLAG).SVT
         AIF   ('&SRB' EQ 'YES').SVT
         AIF   ('&SVT' NE 'YES').NOSVT
.SVT     ANOP
         MNOTE 'IHASVT   -- MVS SVT D-SECT'
         IHASVT LIST=&LISTGEN
.NOSVT   ANOP
.*
.*
         AIF   (&FLAG).PDS
         AIF   ('&PDS' NE 'YES').NOPDS
.PDS     ANOP
         MNOTE 'IHAPDS   -- MVS PDS D-SECT'
         IHAPDS
.NOPDS   ANOP
.*
.*
         AIF   (&FLAG).PCCB
         AIF   ('&PCCB' NE 'YES').NOPCCB
.PCCB    ANOP
         MNOTE 'IEFPCCB   -- MVS PCCB D-SECT'
         IEFPCCB
.NOPCCB  ANOP
.*
.*
         AIF   (&FLAG).DYNAL
         AIF   ('&DYNAL' NE 'YES').NODYNAL
.DYNAL   ANOP
         MNOTE 'IEFZB4D0 -- MVS DYNAMIC ALLOCATION BLOCKS D-SECT'
         IEFZB4D0
         MNOTE 'IEFZB4D2 -- MVS DYNAMIC ALLOCATION TEXT STRINGS'
         IEFZB4D2
.NODYNAL ANOP
.*
.*
         POP   PRINT
         MEXIT
         MEND
