         MACRO
&NAME    PERFORM &LABEL
*
         AIF   ('&LABEL' EQ '').E1
*
&NAME    ST    10,F&SYSNDX              SALVA REGISTRADOR DE DESVIO
         B     PERF&SYSNDX
F&SYSNDX DS    F
PERF&SYSNDX BAL   10,&LABEL
         L     10,F&SYSNDX
         AGO   .END
.E1      MNOTE 8,'*** LABEL NAO PREENCHIDO ***'
.END     MEND
